                            PTI INTERACTIVE POWER SYSTEM SIMULATOR--PSS/E      THU, JUL 31 2008  13:30
                                                                  100.0


<========================= BUS DATA =========================> <=========================== LINE DATA ============================>
 FROM              AREA  VOLT           GEN     LOAD    SHUNT   TO                                           TRANSFORMER   RATING A
 BUS      NAME     ZONE PU/KV  ANGLE  MW/MVAR  MW/MVAR MW/MVAR  BUS      NAME     CKT AREA    MW    MVAR    RATIO   ANGLE   %I  MVA
===== ============ ==== ===== ======  =======  ======= ======= ===== ============ === ====  ====== ======  ======= ======= === ====

    2 BUS002   500   1  0.992  -29.9      0.0   1750.0     0.0 --------------------------------------------------------------------
                     1  496.0             0.0    -56.0     0.0     3 BUS003   345  1    1  -1050.0   81.7  1.000LK
                                                                   4 BUS004  20.0  1    1   -700.0  -25.7  0.955LK
    3 BUS003   345   1  0.992  -21.0      0.0      0.0     0.0 --------------------------------------------------------------------
                     1  342.3             0.0      0.0     0.0     2 BUS002   500  1    1   1050.0   82.9  1.000UN
                                                                   8 BUS008   345  1    1  -1050.0  -82.9
    4 BUS004  20.0   1  1.050  -23.6    800.0    100.0     0.0 --------------------------------------------------------------------
                     1  21.00           104.3R     0.0     0.0     2 BUS002   500  1    1    700.0  104.3  0.955UN

    5 BUS005   345   1  1.056   -0.1      0.0   2350.0     0.0 --------------------------------------------------------------------
                     1  364.4             0.0   -100.0     0.0     6 BUS006  22.0  1    1   -948.0   61.1  1.000LK
                                                                  11 BUS011  20.0  1    1  -1950.0  525.3  1.000LK
                                                                  17 BUS017   345  1    1    158.8 -118.3
                                                                 160 BUS160   345  1    1    114.7 -144.3
                                                                 190 BUS190   345  1    1     99.1  -75.1
                                                                 191 BUS191   345  1    1    175.4 -148.7
    6 BUS006  22.0   1  1.055    6.0   1048.0    100.0     0.0 --------------------------------------------------------------------
                     1  23.21            39.0R     0.0     0.0     5 BUS005   345  1    1    948.0   39.0  1.000UN

    7 BUS007   500   1  1.034  -11.5      0.0      0.0     0.0 --------------------------------------------------------------------
                     1  517.2             0.0      0.0  1070.2     8 BUS008   345  1    1   -382.5 -443.5  1.063LK
                                                                   8 BUS008   345  2    1   -382.5 -443.5  1.063LK
                                                                  28 BUS028   500  1    1    765.0 -183.1
    8 BUS008   345   1  1.024   -9.1      0.0    239.0     0.0 --------------------------------------------------------------------
                     1  353.4             0.0     20.0    83.9     3 BUS003   345  1    1   1070.1   44.1
                                                                   7 BUS007   500  1    1    382.5  483.4  1.063UN
                                                                   7 BUS007   500  2    1    382.5  483.4  1.063UN
                                                                   9 BUS009  22.0  1    1  -2060.0 -330.7  1.000LK
                                                                  10 BUS010   230  1    1     70.1   12.6  1.000LK
                                                                  10 BUS010   230  2    1     69.6   12.5  1.000LK
                                                                  17 BUS017   345  1    1    -68.9 -722.5
                                                                 163 BUS163   345  1    1    -85.0  -86.7
    9 BUS009  22.0   1  1.050   -2.6   2160.0    100.0     0.0 --------------------------------------------------------------------
                     1  23.10           575.5R     0.0     0.0     8 BUS008   345  1    1   2060.0  575.5  1.000UN

   10 BUS010   230   1  1.022   -9.6      0.0    139.7     0.0 --------------------------------------------------------------------
                     1  235.1             0.0     23.8     0.0     8 BUS008   345  1    1    -70.1  -12.0  1.000UN
                                                                   8 BUS008   345  2    1    -69.6  -11.8  1.000UN
   11 BUS011  20.0   1  1.020   15.7   2050.0    100.0     0.0 --------------------------------------------------------------------
                     1  20.40            23.0R     0.0     0.0     5 BUS005   345  1    1   1950.0   23.0  1.000UN

   12 BUS012   500   1  1.062  -23.3      0.0     90.0     0.0 --------------------------------------------------------------------
                     1  531.0             0.0     70.0   214.3    13 BUS013  26.0  1    1  -1590.0 -159.6  1.080LK
                                                                  20 BUS020   500  1    1    482.3   17.9
                                                                  22 BUS022   500  1    1    309.6 -222.0
                                                                 139 BUS139   500  1    1    811.5   65.1
                                                                 194 BUS194   230  1    1   -103.3   14.3  1.000LK
   13 BUS013  26.0   1  1.000  -17.1   1690.0    100.0     0.0 --------------------------------------------------------------------
                     1  26.00           335.5R     0.0     0.0    12 BUS012   500  1    1   1590.0  335.5  1.080UN                            PTI INTERACTIVE POWER SYSTEM SIMULATOR--PSS/E      THU, JUL 31 2008  13:30
                                                                  100.0


<========================= BUS DATA =========================> <=========================== LINE DATA ============================>
 FROM              AREA  VOLT           GEN     LOAD    SHUNT   TO                                           TRANSFORMER   RATING A
 BUS      NAME     ZONE PU/KV  ANGLE  MW/MVAR  MW/MVAR MW/MVAR  BUS      NAME     CKT AREA    MW    MVAR    RATIO   ANGLE   %I  MVA
===== ============ ==== ===== ======  =======  ======= ======= ===== ============ === ====  ====== ======  ======= ======= === ====

   14 BUS014   500   1  1.054  -24.6      0.0      0.0     0.0 --------------------------------------------------------------------
                     1  526.9             0.0      0.0   434.2    21 BUS021   500  1    1   -480.6 -162.0
                                                                  24 BUS024   500  1    1    334.5 -158.3
                                                                  26 BUS026   500  1    1    901.3 -111.7
                                                                  29 BUS029   500  1    1   -755.2   -2.3
   15 BUS015  24.0   1  1.000  -21.7   2640.0    100.0     0.0 --------------------------------------------------------------------
                     1  24.00          1235.0R     0.0     0.0    16 BUS016   500  1    1   2540.0 1235.0  1.106UN

   16 BUS016   500   1  1.046  -29.3      0.0    793.4     0.0 --------------------------------------------------------------------
                     1  523.0             0.0    207.0   765.8    15 BUS015  24.0  1    1  -2535.2 -840.2  1.106LK
                                                                  19 BUS019   500  1    1    -11.5  -32.1
                                                                  19 BUS019   500  2    1    -11.5  -32.1
                                                                 136 BUS136   500  1    1    882.4  -34.2
                                                                 136 BUS136   500  2    1    882.4  -34.2
   17 BUS017   345   1  1.062   -9.1      0.0    840.0     0.0 --------------------------------------------------------------------
                     1  366.3             0.0      5.0  -439.6     5 BUS005   345  1    1   -156.6  -81.0
                                                                   8 BUS008   345  1    1     71.4  739.2
                                                                  18 BUS018  22.0  1    1   -862.0 -191.6  1.043LK
                                                                 192 BUS192   345  1    1    107.2  -32.0
   18 BUS018  22.0   1  1.030   -6.2    962.0    100.0     0.0 --------------------------------------------------------------------
                     1  22.66           236.8R     0.0     0.0    17 BUS017   345  1    1    862.0  236.8  1.043UN

   19 BUS019   500   1  1.044  -29.3      0.0    617.0     0.0 --------------------------------------------------------------------
                     1  522.2             0.0    120.0   465.8    16 BUS016   500  1    1     11.5  -66.5
                                                                  16 BUS016   500  2    1     11.5  -66.5
                                                                  23 BUS023   500  1    1   -307.3 -270.0
                                                                  25 BUS025   500  1    1   -332.6 -182.7
   20 BUS020   500   1  1.064  -21.7      0.0      0.0     0.0 --------------------------------------------------------------------
                     1  531.8             0.0      0.0     0.0    12 BUS012   500  1    1   -482.3  -30.9
                                                                  21 BUS021   500  1    1    482.3   30.9
   21 BUS021   500   1  1.044  -26.2      0.0      0.0     0.0 --------------------------------------------------------------------
                     1  522.2             0.0      0.0     0.0    14 BUS014   500  1    1    480.6  147.3
                                                                  20 BUS020   500  1    1   -480.6 -147.3
   22 BUS022   500   1  1.038  -21.4      0.0      0.0     0.0 --------------------------------------------------------------------
                     1  518.9             0.0      0.0     0.0    12 BUS012   500  1    1   -309.6  206.7
                                                                  23 BUS023   500  1    1    309.6 -206.7
   23 BUS023   500   1  1.014  -31.2      0.0      0.0     0.0 --------------------------------------------------------------------
                     1  507.2             0.0      0.0     0.0    19 BUS019   500  1    1    307.3  251.8
                                                                  22 BUS022   500  1    1   -307.3 -251.8
   24 BUS024   500   1  1.042  -23.2      0.0      0.0     0.0 --------------------------------------------------------------------
                     1  520.9             0.0      0.0     0.0    14 BUS014   500  1    1   -334.5  148.1
                                                                  25 BUS025   500  1    1    334.5 -148.1
   25 BUS025   500   1  1.030  -30.7      0.0      0.0     0.0 --------------------------------------------------------------------
                     1  515.2             0.0      0.0     0.0    19 BUS019   500  1    1    332.6  171.8
                                                                  24 BUS024   500  1    1   -332.6 -171.8
   26 BUS026   500   1  1.046  -16.2      0.0      0.0     0.0 --------------------------------------------------------------------
                     1  523.1             0.0      0.0     0.0    14 BUS014   500  1    1   -901.3  -21.6
                                                                  27 BUS027   500  1    1    901.3   21.6
   27 BUS027   500   1  1.008  -40.9      0.0      0.0     0.0 --------------------------------------------------------------------
                     1  504.2             0.0      0.0     0.0    26 BUS026   500  1    1   -884.9  -45.0
                                                                 139 BUS139   500  1    1    884.9   45.0                            PTI INTERACTIVE POWER SYSTEM SIMULATOR--PSS/E      THU, JUL 31 2008  13:30
                                                                  100.0


<========================= BUS DATA =========================> <=========================== LINE DATA ============================>
 FROM              AREA  VOLT           GEN     LOAD    SHUNT   TO                                           TRANSFORMER   RATING A
 BUS      NAME     ZONE PU/KV  ANGLE  MW/MVAR  MW/MVAR MW/MVAR  BUS      NAME     CKT AREA    MW    MVAR    RATIO   ANGLE   %I  MVA
===== ============ ==== ===== ======  =======  ======= ======= ===== ============ === ====  ====== ======  ======= ======= === ====

   28 BUS028   500   1  1.028   -9.8      0.0      0.0     0.0 --------------------------------------------------------------------
                     1  513.9             0.0      0.0     0.0     7 BUS007   500  1    1   -765.0  159.5
                                                                  29 BUS029   500  1    1    765.0 -159.5
   29 BUS029   500   1  1.055  -27.0      0.0      0.0     0.0 --------------------------------------------------------------------
                     1  527.3             0.0      0.0     0.0    14 BUS014   500  1    1    755.2  -29.1
                                                                  28 BUS028   500  1    1   -755.2   29.1
   30 BUS030  20.0   1  1.000   37.8   4450.0    100.0     0.0 --------------------------------------------------------------------
                     1  20.00          1050.8R     0.0     0.0    31 BUS031   500  1    1   4350.0 1050.8  1.050UN

   31 BUS031   500   1  1.036   34.0      0.0   4400.0     0.0 --------------------------------------------------------------------
                     1  517.9             0.0   1000.0     0.0    30 BUS030  20.0  1    1  -4350.0 -750.4  1.050LK
                                                                  32 BUS032   500  1    1   -748.5  -81.7
                                                                  80 BUS080   500  1    1    698.5 -167.9
   32 BUS032   500   1  1.078   62.3      0.0      0.0     0.0 --------------------------------------------------------------------
                     1  539.2             0.0      0.0     0.0    31 BUS031   500  1    1    767.7  -49.7
                                                                  33 BUS033   230  1    1   -767.7   49.7  1.100LK
   33 BUS033   230   1  0.978   66.9      0.0      0.0     0.0 --------------------------------------------------------------------
                     1  225.0             0.0      0.0     0.0    32 BUS032   500  1    1    767.7   11.9  1.100UN
                                                                  34 BUS034   230  1    1   -767.7  -11.9
   34 BUS034   230   1  1.001   76.0      0.0   3600.0     0.0 --------------------------------------------------------------------
                     1  230.3             0.0    700.0     0.0    33 BUS033   230  1    1    780.0   56.8
                                                                  35 BUS035  20.0  1    1  -4380.0 -756.8  1.000LK
   35 BUS035  20.0   1  1.020   80.9   4480.0    100.0     0.0 --------------------------------------------------------------------
                     1  20.40          1151.1R     0.0     0.0    34 BUS034   230  1    1   4380.0 1151.1  1.000UN

   36 BUS036  22.0   1  1.050    0.6   1640.0    100.0     0.0 --------------------------------------------------------------------
                     1  23.10           124.5R     0.0     0.0    85 BUS085   345  1    1   1540.0  124.5  1.000UN

   37 BUS037   500   1  1.026  -41.6      0.0  -1862.0     0.0 --------------------------------------------------------------------
                     1  512.8             0.0    971.0  -210.4    38 BUS038   500  1    1    434.7 -312.3
                                                                  56 BUS056   500  1    1    637.6  -85.1
                                                                  64 BUS064   500  1    1    394.8 -181.6
                                                                  64 BUS064   500  2    1    394.8 -181.6
   38 BUS038   500   1  1.069  -45.9      0.0      0.0     0.0 --------------------------------------------------------------------
                     1  534.4             0.0      0.0     0.0    37 BUS037   500  1    1   -433.0  201.9
                                                                  48 BUS048   230  1    1    433.0 -201.9  1.050LK
   39 BUS039   230   1  1.039  -47.1      0.0      0.0     0.0 --------------------------------------------------------------------
                     1  239.1             0.0      0.0     0.0    40 BUS040  18.0  1    1    -99.9  -43.3  1.000LK
                                                                  46 BUS046   230  1    1     18.1   13.3
                                                                  48 BUS048   230  1    1     26.5   15.0
                                                                  59 BUS059   230  1    1     64.8   13.9
                                                                  60 BUS060   230  1    1     -9.4    1.2
   40 BUS040  18.0   1  1.050  -45.8    200.0    100.0     0.0 --------------------------------------------------------------------
                     1  18.90            46.0R     0.0     0.0    39 BUS039   230  1    1    100.0   46.0  1.000UN

   41 BUS041   230   1  1.021  -50.7      0.0    135.0     0.0 --------------------------------------------------------------------
                     1  234.9             0.0     27.0     0.0    55 BUS055   230  1    1   -221.2   23.0
                                                                  58 BUS058   230  1    1     86.2  -50.0                            PTI INTERACTIVE POWER SYSTEM SIMULATOR--PSS/E      THU, JUL 31 2008  13:30
                                                                  100.0


<========================= BUS DATA =========================> <=========================== LINE DATA ============================>
 FROM              AREA  VOLT           GEN     LOAD    SHUNT   TO                                           TRANSFORMER   RATING A
 BUS      NAME     ZONE PU/KV  ANGLE  MW/MVAR  MW/MVAR MW/MVAR  BUS      NAME     CKT AREA    MW    MVAR    RATIO   ANGLE   %I  MVA
===== ============ ==== ===== ======  =======  ======= ======= ===== ============ === ====  ====== ======  ======= ======= === ====

   42 BUS042   230   1  1.045  -50.5      0.0      0.0     0.0 --------------------------------------------------------------------
                     1  240.4             0.0      0.0     0.0    43 BUS043  18.0  1    1   -224.5 -199.5  1.049LK
                                                                  50 BUS050   230  1    1     65.5   51.0
                                                                  50 BUS050   230  2    1     61.2   46.9
                                                                  57 BUS057   230  1    1     75.0   55.6
                                                                  58 BUS058   230  1    1     22.8   46.1
   43 BUS043  18.0   1  1.050  -47.5    325.0    100.0     0.0 --------------------------------------------------------------------
                     1  18.90           222.6R     0.0     0.0    42 BUS042   230  1    1    225.0  222.6  1.049UN

   44 BUS044   345   1  1.057  -10.4      0.0   2053.0     0.0 --------------------------------------------------------------------
                     1  364.6             0.0    907.1  -480.3    45 BUS045  26.0  1    1  -1680.0 -307.9  1.025LK
                                                                 160 BUS160   345  1    1   -186.5  -59.5
                                                                 160 BUS160   345  2    1   -186.5  -59.5
   45 BUS045  26.0   1  1.050   -5.8   1780.0    100.0     0.0 --------------------------------------------------------------------
                     1  27.30           450.6R     0.0     0.0    44 BUS044   345  1    1   1680.0  450.6  1.025UN

   46 BUS046   230   1  1.033  -47.4      0.0    -72.8     0.0 --------------------------------------------------------------------
                     1  237.7             0.0    -17.0     0.0    39 BUS039   230  1    1    -18.1  -21.0
                                                                  48 BUS048   230  1    1     90.9   38.0
   47 BUS047  11.5   1  1.050  -47.1    110.0    100.0     0.0 --------------------------------------------------------------------
                     1  12.07            59.6R     0.0     0.0    48 BUS048   230  1    1     10.0   59.6  1.048UN

   48 BUS048   230   1  1.032  -47.6      0.0    121.0     0.0 --------------------------------------------------------------------
                     1  237.3             0.0     25.0     0.0    38 BUS038   500  1    1   -432.7  217.2  1.050UN
                                                                  39 BUS039   230  1    1    -26.5  -23.4
                                                                  46 BUS046   230  1    1    -90.8  -38.6
                                                                  47 BUS047  11.5  1    1     -9.8  -55.8  1.048LK
                                                                  49 BUS049   500  1    1   -314.1  197.8  1.050UN
                                                                  55 BUS055   230  1    1    265.1   35.0
                                                                  55 BUS055   230  2    1    265.1   35.0
                                                                  59 BUS059   230  1    1    207.2   -3.4
                                                                  59 BUS059   230  2    1    207.2   -3.4
                                                                  59 BUS059   230  3    1    205.6   -7.4
                                                                  59 BUS059   230  4    1    205.6   -7.4
                                                                  60 BUS060   230  1    1   -335.6 -140.7
                                                                  60 BUS060   230  2    1   -335.6 -140.7
                                                                  60 BUS060   230  3    1   -335.6 -140.7
                                                                  62 BUS062   230  1    1    202.1   25.8
                                                                  62 BUS062   230  2    1    202.1   25.8
   49 BUS049   500   1  1.057  -45.1      0.0      0.0     0.0 --------------------------------------------------------------------
                     1  528.5             0.0      0.0    89.4    48 BUS048   230  1    1    314.5 -179.8  1.050LK
                                                                  64 BUS064   500  1    1   -314.5   90.4
   50 BUS050   230   1  1.026  -51.6      0.0    320.0     0.0 --------------------------------------------------------------------
                     1  236.0             0.0     65.0     0.0    42 BUS042   230  1    1    -65.4  -56.9
                                                                  42 BUS042   230  2    1    -61.0  -53.6
                                                                  57 BUS057   230  1    1     15.1  -17.4
                                                                  58 BUS058   230  1    1   -208.7   63.0                            PTI INTERACTIVE POWER SYSTEM SIMULATOR--PSS/E      THU, JUL 31 2008  13:30
                                                                  100.0


<========================= BUS DATA =========================> <=========================== LINE DATA ============================>
 FROM              AREA  VOLT           GEN     LOAD    SHUNT   TO                                           TRANSFORMER   RATING A
 BUS      NAME     ZONE PU/KV  ANGLE  MW/MVAR  MW/MVAR MW/MVAR  BUS      NAME     CKT AREA    MW    MVAR    RATIO   ANGLE   %I  MVA
===== ============ ==== ===== ======  =======  ======= ======= ===== ============ === ====  ====== ======  ======= ======= === ====

   51 BUS051   138   1  1.030  -51.7      0.0    237.2     0.0 --------------------------------------------------------------------
                     1  142.1             0.0    -63.2     0.0    52 BUS052   287  1    1   -147.4   12.4  1.002UN
                                                                  53 BUS053   287  1    1   -147.4   12.4  1.002UN
                                                                  54 BUS054   230  1    1     28.9   19.3  1.000UN
                                                                  54 BUS054   230  2    1     28.6   19.2  1.000UN
   52 BUS052   287   1  1.031  -50.5      0.0      0.0     0.0 --------------------------------------------------------------------
                     1  295.8             0.0      0.0     0.0    51 BUS051   138  1    1    147.5   -9.3  1.002LK
                                                                  63 BUS063   287  1    1   -147.5    9.3
   53 BUS053   287   1  1.031  -50.5      0.0      0.0     0.0 --------------------------------------------------------------------
                     1  295.8             0.0      0.0     0.0    51 BUS051   138  1    1    147.5   -9.3  1.002LK
                                                                  63 BUS063   287  1    1   -147.5    9.3
   54 BUS054   230   1  1.027  -51.9      0.0    138.0     0.0 --------------------------------------------------------------------
                     1  236.2             0.0     28.0     0.0    51 BUS051   138  1    1    -28.9  -19.2  1.000LK
                                                                  51 BUS051   138  2    1    -28.6  -19.0  1.000LK
                                                                  57 BUS057   230  1    1    -40.2    5.1
                                                                  57 BUS057   230  2    1    -40.2    5.1
   55 BUS055   230   1  1.021  -49.8      0.0    807.8     0.0 --------------------------------------------------------------------
                     1  234.8             0.0    132.1     0.0    41 BUS041   230  1    1    221.5  -21.3
                                                                  48 BUS048   230  1    1   -263.5  -27.5
                                                                  48 BUS048   230  2    1   -263.5  -27.5
                                                                  56 BUS056   500  1    1   -317.1   25.6  1.011UN
                                                                  56 BUS056   500  2    1   -317.1   25.6  1.011UN
                                                                  58 BUS058   230  1    1    164.7  -39.0
                                                                  58 BUS058   230  2    1    164.7  -39.0
                                                                  62 BUS062   230  1    1   -197.4  -29.0
   56 BUS056   500   1  1.029  -47.4      0.0      0.0     0.0 --------------------------------------------------------------------
                     1  514.7             0.0      0.0     0.0    37 BUS037   500  1    1   -634.4   24.2
                                                                  55 BUS055   230  1    1    317.2  -12.1  1.011LK
                                                                  55 BUS055   230  2    1    317.2  -12.1  1.011LK
   57 BUS057   230   1  1.027  -51.7      0.0    117.0     0.0 --------------------------------------------------------------------
                     1  236.1             0.0     24.0     0.0    42 BUS042   230  1    1    -74.8  -60.4
                                                                  50 BUS050   230  1    1    -15.1   16.5
                                                                  54 BUS054   230  1    1     40.3   -7.6
                                                                  54 BUS054   230  2    1     40.3   -7.6
                                                                  58 BUS058   230  1    1   -107.6   35.2
   58 BUS058   230   1  1.024  -51.0      0.0    121.0     0.0 --------------------------------------------------------------------
                     1  235.4             0.0     25.0     0.0    41 BUS041   230  1    1    -86.2   49.3
                                                                  42 BUS042   230  1    1    -22.7  -55.2
                                                                  50 BUS050   230  1    1    208.9  -61.6
                                                                  55 BUS055   230  1    1   -164.4   39.4
                                                                  55 BUS055   230  2    1   -164.4   39.4
                                                                  57 BUS057   230  1    1    107.8  -36.3
   59 BUS059   230   1  1.029  -48.7      0.0    887.7     0.0 --------------------------------------------------------------------
                     1  236.7             0.0     -6.2     0.0    39 BUS039   230  1    1    -64.7  -22.7
                                                                  48 BUS048   230  1    1   -206.6    5.2