1   'GENCLS'   1  5.00          0.000/ CONSTANT INTERNAL VOLTAGE GENERATOR MODEL
2   'GENCLS'   1  5.00          0.000/ CONSTANT INTERNAL VOLTAGE GENERATOR MODEL
3   'GENCLS'   1  5.00          0.000/ CONSTANT INTERNAL VOLTAGE GENERATOR MODEL