0,   100.00          / PSS/E-30.3    THU, OCT 11 2007  10:55
2007 SERIES, NERC/MMWG BASE CASE LIBRARY
2008 SUMMER, FINAL
248403,'07SUL_TP    ',  69.0000,1,     0.000,     0.000, 207,1207,1.01830,  -8.3003, 207
248404,'07VIC161    ', 161.0000,1,     0.000,     0.000, 207,1207,1.01508, -14.2776, 207
248405,'07SPRVLY    ',  69.0000,1,     0.000,     0.000, 207,1207,1.05064, -19.2643, 207
248406,'07GCCOAL    ',  69.0000,1,     0.000,     0.000, 207,1207,1.03365,  -6.3979, 207
248407,'07MAPCO     ',  69.0000,1,     0.000,     0.000, 207,1207,1.03766,  -6.8810, 207
248408,'07VALEEN    ',  69.0000,1,     0.000,     0.000, 207,1207,1.04977, -20.1281, 207
248409,'07GCCLP1    ',  69.0000,1,     0.000,     0.000, 207,1207,1.02445,  -7.5127, 207
248410,'07GCCLP2    ',  69.0000,1,     0.000,     0.000, 207,1207,1.02066,  -7.6272, 207
248412,'07AQUAL3    ',  69.0000,1,     0.000,     0.000, 207,1207,1.01174, -13.2717, 207
248413,'07HZLTON    ',  69.0000,1,     0.000,     0.000, 207,1207,1.04528,  -7.8284, 207
248414,'07PVCOAL    ',  69.0000,1,     0.000,     0.000, 207,1207,0.99926, -18.4707, 207
248415,'07RHILTP    ',  69.0000,1,     0.000,     0.000, 207,1207,1.01150, -22.4394, 207
248426,'07GCCLTP    ',  69.0000,1,     0.000,     0.000, 207,1207,1.03530,  -6.3242, 207
248427,'07ABYDEL    ',  69.0000,1,     0.000,     0.000, 207,1207,1.04493, -20.0378, 207
248428,'07RATTAP    ', 138.0000,1,     0.000,     0.000, 207,1207,1.02468, -10.3973, 207
248429,'07KLLRVL    ',  69.0000,1,     0.000,     0.000, 207,1207,1.00496, -16.4935, 207
248430,'07KLRV_T    ',  69.0000,1,     0.000,     0.000, 207,1207,1.00510, -16.4872, 207
248431,'07BRISTW    ', 161.0000,1,     0.000,     0.000, 207,1207,1.02156, -18.0751, 207
248445,'07SUL_SW    ',  69.0000,1,     0.000,     0.000, 207,1207,1.01840,  -8.2813, 207
248446,'07VINSIP    ',  69.0000,1,     0.000,     0.000, 207,1207,1.00781, -13.5169, 207
248447,'07VINSTP    ',  69.0000,1,     0.000,     0.000, 207,1207,1.00851, -13.4785, 207
248464,'07SAND69    ',  69.0000,1,     0.000,     0.000, 207,1207,1.09583, -11.4362, 207
248465,'07SAND61    ', 161.0000,1,     0.000,     0.000, 207,1207,1.00520, -10.6252, 207
248466,'07SANDT1    ',  69.0000,1,     0.000,     0.000, 207,1207,1.07973, -12.2158, 207
248467,'07SANDT2    ',  69.0000,1,     0.000,     0.000, 207,1207,1.07633, -10.6648, 207
248469,'07DCTRS1    ', 161.0000,1,     0.000,     0.000, 207,1207,1.01684, -28.4940, 207
248470,'07DCTRSS    ', 138.0000,1,     0.000,     0.000, 207,1207,1.01479, -29.6547, 207
248472,'07HONDA1    ', 138.0000,1,     0.000,     0.000, 207,1207,1.01425, -29.7120, 207
248473,'07HONDA2    ', 138.0000,1,     0.000,     0.000, 207,1207,1.01425, -29.7120, 207
248474,'07HONDA3    ',  13.8000,1,     0.000,     0.000, 207,1207,1.01332, -29.8701, 207
248475,'07HONDA4    ',  13.8000,1,     0.000,     0.000, 207,1207,1.01332, -29.8701, 207
248514,'07FERDND    ',  69.0000,1,     0.000,     0.000, 207,1207,1.02460, -24.1974, 207
248515,'07RAMSEY    ',  69.0000,1,     0.000,     0.000, 207,1207,1.04866, -19.0459, 207
248516,'07CORYDN    ',  69.0000,1,     0.000,     0.000, 207,1207,1.03161, -20.0107, 207
248521,'07MNRO_C    ',  69.0000,1,     0.000,     0.000, 207,1207,1.03433, -12.1886, 207
248522,'07RATTS     ', 161.0000,1,     0.000,     0.000, 207,1207,1.02487, -10.0473, 207
248523,'07RAT_1     ',  69.0000,1,     0.000,     0.000, 207,1207,1.05594, -11.0122, 207
248524,'07GRHM_T    ',  69.0000,1,     0.000,     0.000, 207,1207,1.07781, -11.4843, 207
248535,'07ODON      ',  69.0000,1,     0.000,     0.000, 207,1207,1.07794, -11.8505, 207
248536,'07SCTLND    ',  69.0000,1,     0.000,     0.000, 207,1207,1.06061, -12.1211, 207
248537,'07BLMFDT    ',  69.0000,1,     0.000,     0.000, 207,1207,1.05357, -12.0716, 207
248538,'07LYNS_T    ',  69.0000,1,     0.000,     0.000, 207,1207,1.05102, -11.6522, 207
248539,'07LYONS     ',  69.0000,1,     0.000,     0.000, 207,1207,1.05024, -11.6955, 207
248545,'07SWTZ_C    ',  69.0000,1,     0.000,     0.000, 207,1207,1.05062, -11.4774, 207
248546,'07WRTHG     ',  69.0000,1,     0.000,     0.000, 207,1207,1.05290, -11.0652, 207
248547,'07WORTH8    ', 138.0000,1,     0.000,     0.000, 207,1207,1.02091,  -9.7646, 207
248548,'07CALVRT    ',  69.0000,1,     0.000,     0.000, 207,1207,1.04995, -11.2214, 207
248549,'07CLY_CY    ',  69.0000,1,     0.000,     0.000, 207,1207,1.00823, -22.0988, 207
248560,'07STRYVL    ',  69.0000,1,     0.000,     0.000, 207,1207,1.01575, -21.7267, 207
248561,'07VCKSBG    ',  69.0000,1,     0.000,     0.000, 207,1207,1.04783, -11.3287, 207
248562,'07ESLVIN    ',  69.0000,1,     0.000,     0.000, 207,1207,1.01731,  -8.3403, 207
248563,'07WSLVIN    ',  69.0000,1,     0.000,     0.000, 207,1207,1.03208,  -6.5350, 207
248569,'07SCT_CY    ',  69.0000,1,     0.000,     0.000, 207,1207,1.02918,  -6.7546, 207
248570,'07MDLTWT    ',  69.0000,1,     0.000,     0.000, 207,1207,0.98359, -23.7535, 207
248571,'07MIDLTN    ',  69.0000,1,     0.000,     0.000, 207,1207,0.98167, -23.8682, 207
248572,'07FRMBRG    ',  69.0000,1,     0.000,     0.000, 207,1207,0.98410, -23.7204, 207
248573,'07KELLER    ',  69.0000,1,     0.000,     0.000, 207,1207,0.99289, -23.1779, 207
248574,'07MRM_TP    ',  69.0000,1,     0.000,     0.000, 207,1207,1.03902,  -7.7076, 207
248576,'07KLLR_S    ',  69.0000,1,     0.000,     0.000, 207,1207,0.99059, -23.3103, 207
248585,'07MRM_D     ',  69.0000,1,     0.000,     0.000, 207,1207,1.03805,  -7.7426, 207
248586,'07CARLIL    ',  69.0000,1,     0.000,     0.000, 207,1207,1.04050,  -8.8319, 207
248587,'07FRELND    ',  69.0000,1,     0.000,     0.000, 207,1207,1.07431, -12.4782, 207
248588,'07BRUCVL    ',  69.0000,4,     0.000,     0.000, 207,1207,1.00000,   0.0000, 207
248593,'07MNR_TP    ',  69.0000,1,     0.000,     0.000, 207,1207,1.03442, -12.1835, 207
248594,'07FRICTN    ',  69.0000,1,     0.000,     0.000, 207,1207,1.01701, -13.0222, 207
248595,'07VINCEN    ',  69.0000,1,     0.000,     0.000, 207,1207,1.00856, -13.4753, 207
248596,'07ESEX_W    ',  69.0000,1,     0.000,     0.000, 207,1207,1.04266, -11.7462, 207
248597,'07DECK_T    ',  69.0000,1,     0.000,     0.000, 207,1207,1.04539, -11.6025, 207
248598,'07DECKER    ',  69.0000,1,     0.000,     0.000, 207,1207,1.04438, -11.6439, 207
248609,'07UNION     ',  69.0000,1,     0.000,     0.000, 207,1207,1.04722, -11.3870, 207
248610,'07FRAN_T    ',  69.0000,1,     0.000,     0.000, 207,1207,1.04486,  -7.8531, 207
248611,'07FRNCSC    ',  69.0000,1,     0.000,     0.000, 207,1207,1.04331,  -7.9382, 207
248612,'07PRNCTN    ',  69.0000,1,     0.000,     0.000, 207,1207,1.04621,  -7.7915, 207
248613,'07OWNVIL    ',  69.0000,1,     0.000,     0.000, 207,1207,1.02859,  -7.3471, 207
248617,'07POSYVL    ',  69.0000,1,     0.000,     0.000, 207,1207,1.01794,  -7.8842, 207
248618,'07GRFN_T    ',  69.0000,1,     0.000,     0.000, 207,1207,1.01596,  -7.9975, 207
248619,'07WINFLD    ',  69.0000,1,     0.000,     0.000, 207,1207,1.01396,  -8.1089, 207
248620,'07GRIFIN    ',  69.0000,1,     0.000,     0.000, 207,1207,1.01559,  -8.0151, 207
248621,'07RAT_2     ',  69.0000,1,     0.000,     0.000, 207,1207,1.05594, -11.0122, 207
248632,'07ALGIER    ',  69.0000,1,     0.000,     0.000, 207,1207,1.05483, -11.1066, 207
248633,'07WHIT_J    ',  69.0000,1,     0.000,     0.000, 207,1207,1.00395, -17.6814, 207
248634,'07IRELND    ',  69.0000,1,     0.000,     0.000, 207,1207,1.00474, -18.2141, 207
248635,'07HNTB_T    ',  69.0000,1,     0.000,     0.000, 207,1207,0.99523, -18.6458, 207
248636,'07S.ANTY    ',  69.0000,1,     0.000,     0.000, 207,1207,1.02015, -24.4021, 207
248641,'07NW_HAV    ',  69.0000,1,     0.000,     0.000, 207,1207,1.02131, -23.6819, 207
248642,'07MIDWAY    ',  69.0000,1,     0.000,     0.000, 207,1207,1.02191, -21.5047, 207
248643,'07TEL_CY    ',  69.0000,1,     0.000,     0.000, 207,1207,1.00385, -23.1350, 207
248644,'07BANDON    ',  69.0000,1,     0.000,     0.000, 207,1207,1.02292, -22.4380, 207
248645,'07PRYCTY    ',  69.0000,1,     0.000,     0.000, 207,1207,1.02085, -22.5171, 207
248656,'07CHRNEY    ',  69.0000,1,     0.000,     0.000, 207,1207,1.01765, -22.1690, 207
248657,'07ROSHIL    ',  69.0000,1,     0.000,     0.000, 207,1207,1.01104, -22.4588, 207
248658,'07VICTRY    ',  69.0000,1,     0.000,     0.000, 207,1207,1.00430, -16.7479, 207
248659,'07DUB_TP    ',  69.0000,1,     0.000,     0.000, 207,1207,0.99562, -16.9267, 207
248660,'07DUBOIS    ',  69.0000,1,     0.000,     0.000, 207,1207,0.99371, -17.0139, 207
248665,'07ECKY_T    ',  69.0000,1,     0.000,     0.000, 207,1207,1.07568, -18.5408, 207
248666,'07TAS_2     ',  69.0000,1,     0.000,     0.000, 207,1207,1.07659, -18.4907, 207
248667,'07TASWL1    ', 161.0000,1,     0.000,     0.000, 207,1207,1.02504, -16.7163, 207
248668,'07JASPER    ',  69.0000,1,     0.000,     0.000, 207,1207,1.00517, -16.4842, 207
248669,'07FRNK_T    ',  69.0000,1,     0.000,     0.000, 207,1207,1.04891, -19.8652, 207
248680,'07CHAILX    ',  69.0000,1,     0.000,     0.000, 207,1207,1.04264, -20.1709, 207
248681,'07FRN_LK    ',  69.0000,1,     0.000,     0.000, 207,1207,1.04710, -19.9849, 207
248682,'07MARENG    ',  69.0000,1,     0.000,     0.000, 207,1207,1.05796, -19.6462, 207
248683,'07MAHANJ    ',  69.0000,1,     0.000,     0.000, 207,1207,1.05563, -19.7975, 207
248684,'07MAHAN     ',  69.0000,1,     0.000,     0.000, 207,1207,1.04223, -20.5535, 207
248689,'07LEIPSI    ',  69.0000,1,     0.000,     0.000, 207,1207,1.03779, -20.8039, 207
248690,'07OWNVL9    ',  69.0000,1,     0.000,     0.000, 207,1207,1.03529,  -6.3167, 207
248691,'07BEECHW    ',  69.0000,1,     0.000,     0.000, 207,1207,1.05585, -19.1793, 207
248692,'07GRENVL    ',  69.0000,1,     0.000,     0.000, 207,1207,1.02945, -24.9040, 207
248693,'07NAPOL1    ', 161.0000,1,     0.000,     0.000, 207,1207,1.02367, -27.1243, 207
248704,'07G-TOWN    ',  69.0000,1,     0.000,     0.000, 207,1207,1.03507, -24.6094, 207
248705,'07NAPOL8    ', 138.0000,1,     0.000,     0.000, 207,1207,1.03063, -27.1673, 207
248706,'07NAP_69    ',  69.0000,1,     0.000,     0.000, 207,1207,1.06673, -29.2243, 207
248707,'07DABNYJ    ',  69.0000,1,     0.000,     0.000, 207,1207,1.05763, -29.7010, 207
248711,'07N.VERN    ',  69.0000,1,     0.000,     0.000, 207,1207,1.04095, -30.5223, 207
248712,'07VERSLJ    ',  69.0000,1,     0.000,     0.000, 207,1207,1.04218, -30.5866, 207
248713,'07PLSANT    ',  69.0000,1,     0.000,     0.000, 207,1207,1.04572, -26.8476, 207
248714,'07FVEPTS    ',  69.0000,1,     0.000,     0.000, 207,1207,1.04271, -27.0268, 207
248715,'07ELROD     ',  69.0000,1,     0.000,     0.000, 207,1207,1.03524, -30.9208, 207
248716,'07DILBOR    ',  69.0000,1,     0.000,     0.000, 207,1207,1.04466, -32.6974, 207
248727,'07E.ENTR    ',  69.0000,1,     0.000,     0.000, 207,1207,1.03715, -27.3992, 207
248728,'07MEX_BM    ',  69.0000,1,     0.000,     0.000, 207,1207,1.03203, -27.6108, 207
248729,'07RAMSY     ',  69.0000,1,     0.000,     0.000, 207,1207,1.04793, -19.1812, 207
248730,'07DABNEY    ',  69.0000,1,     0.000,     0.000, 207,1207,1.05729, -29.7191, 207
248731,'07SUNAMN    ',  69.0000,1,     0.000,     0.000, 207,1207,1.05885, -31.8193, 207
248732,'07HUBBEL    ',  69.0000,1,     0.000,     0.000, 207,1207,1.06172, -31.6019, 207
248733,'07YRKVIL    ',  69.0000,1,     0.000,     0.000, 207,1207,1.04104, -32.7857, 207
248734,'07NEW_PT    ',  69.0000,1,     0.000,     0.000, 207,1207,1.05804, -29.9192, 207
248735,'07KNG_SW    ',  69.0000,1,     0.000,     0.000, 207,1207,1.03648, -31.8138, 207
248746,'07SANTEE    ',  69.0000,1,     0.000,     0.000, 207,1207,1.03482, -31.9001, 207
248747,'07ORANGE    ',  69.0000,1,     0.000,     0.000, 207,1207,1.02276, -33.0099, 207
248748,'07SEXTON    ',  69.0000,1,     0.000,     0.000, 207,1207,1.00632, -33.7166, 207
248749,'07BOYD_J    ',  69.0000,1,     0.000,     0.000, 207,1207,1.00581, -33.3901, 207
248750,'07CARTHA    ',  69.0000,1,     0.000,     0.000, 207,1207,1.00507, -33.4333, 207
248751,'07PIONEER   ',  69.0000,1,     0.000,     0.000, 207,1207,1.00734, -32.8542, 207
248752,'07PEPRTN    ',  69.0000,1,     0.000,     0.000, 207,1207,1.03034, -32.1672, 207
248753,'07METMRA    ',  69.0000,1,     0.000,     0.000, 207,1207,1.02102, -32.6994, 207
248754,'07BLMGRV    ',  69.0000,1,     0.000,     0.000, 207,1207,1.02052, -32.7273, 207
248755,'07BLU_CK    ',  69.0000,1,     0.000,     0.000, 207,1207,1.04517, -32.7471, 207
248766,'07BGCDRJ    ',  69.0000,1,     0.000,     0.000, 207,1207,1.03099, -33.5257, 207
248767,'07BG_CDR    ',  69.0000,1,     0.000,     0.000, 207,1207,1.02930, -33.6118, 207
248768,'07ROSE_T    ',  69.0000,1,     0.000,     0.000, 207,1207,1.01282, -34.5760, 207
248769,'07STAT69    ',  69.0000,1,     0.000,     0.000, 207,1207,1.02162, -21.4094, 207
248770,'07TOWER     ',  69.0000,1,     0.000,     0.000, 207,1207,1.05064, -19.2643, 207
248771,'07CONVIL    ',  69.0000,1,     0.000,     0.000, 207,1207,1.01642, -32.9725, 207
248772,'07WATRLO    ',  69.0000,1,     0.000,     0.000, 207,1207,1.01460, -33.0816, 207
248773,'07MEROM5    ', 345.0000,2,     0.000,     0.000, 207,1207,1.04528,  -4.4361, 207
248774,'07MRM_PR    ',  69.0000,1,     0.000,     0.000, 207,1207,1.03483,  -6.2850, 207
248775,'07WLTN_C    ',  69.0000,1,     0.000,     0.000, 207,1207,1.01856, -12.9443, 207
248776,'07RATTS8    ', 138.0000,1,     0.000,     0.000, 207,1207,1.02469, -10.3959, 207
248777,'07ODON_T    ',  69.0000,1,     0.000,     0.000, 207,1207,1.07818, -11.8412, 207
248778,'07ECKRTY    ',  69.0000,1,     0.000,     0.000, 207,1207,1.07464, -18.5980, 207
248779,'07FAIRV8    ', 138.0000,1,     0.000,     0.000, 207,1207,1.00101, -25.5530, 207
248780,'07FAIRVW    ',  69.0000,1,     0.000,     0.000, 207,1207,1.04718, -26.7337, 207
248781,'07MDLTNT    ',  69.0000,1,     0.000,     0.000, 207,1207,0.98272, -23.8070, 207
248782,'07PNR_SW    ',  69.0000,1,     0.000,     0.000, 207,1207,1.00693, -33.0028, 207
248783,'07CONRVL    ',  69.0000,1,     0.000,     0.000, 207,1207,1.01641, -32.9733, 207
248784,'07WORTH     ', 161.0000,1,     0.000,     0.000, 207,1207,1.01813,  -9.9678, 207
248785,'07FRLD_T    ',  69.0000,1,     0.000,     0.000, 207,1207,1.07725, -12.3369, 207
248786,'07CHRN_T    ',  69.0000,1,     0.000,     0.000, 207,1207,1.01820, -22.1419, 207
248787,'07PALMYR    ',  69.0000,1,     0.000,     0.000, 207,1207,1.04406, -19.3798, 207
248788,'07BLMFLD    ',  69.0000,1,     0.000,     0.000, 207,1207,1.05338, -12.0820, 207
248789,'07CMBCKJ    ',  69.0000,1,     0.000,     0.000, 207,1207,1.06264, -11.2997, 207
248790,'07CUMBAC    ',  69.0000,1,     0.000,     0.000, 207,1207,1.06200, -11.3237, 207
248791,'07HUNTBG    ',  69.0000,1,     0.000,     0.000, 207,1207,0.99373, -18.7101, 207
248792,'07WORTHN    ', 345.0000,1,     0.000,     0.000, 207,1207,1.03179,  -9.0588, 207
248793,'07BLOMNG    ', 345.0000,1,     0.000,     0.000, 207,1207,1.02089, -14.3303, 207
248794,'07CRTLND    ', 161.0000,1,     0.000,     0.000, 207,1207,1.04877, -20.0972, 207
248795,'07CRTLTP    ', 161.0000,1,     0.000,     0.000, 207,1207,1.04888, -20.0861, 207
248804,'07GRAHAM    ',  69.0000,1,     0.000,     0.000, 207,1207,1.07735, -11.5100, 207
248805,'07RVETHL    ',  69.0000,1,     0.000,     0.000, 207,1207,1.00774, -33.8669, 207
248806,'07BUECLR    ',  69.0000,1,     0.000,     0.000, 207,1207,1.07202, -18.7181, 207
248807,'07DOGWOD    ',  69.0000,1,     0.000,     0.000, 207,1207,1.02264, -22.2916, 207
248808,'07MAUKPT    ',  69.0000,1,     0.000,     0.000, 207,1207,1.02097, -22.5659, 207
248809,'07QUARRD    ',  69.0000,1,     0.000,     0.000, 207,1207,1.02991, -20.9164, 207
248810,'07MCKPRT    ',  69.0000,1,     0.000,     0.000, 207,1207,1.01253, -23.1296, 207
248811,'07ELIZBH    ',  69.0000,1,     0.000,     0.000, 207,1207,1.01918, -23.6178, 207
248812,'07LANVIL    ',  69.0000,1,     0.000,     0.000, 207,1207,1.02528, -24.5617, 207
248813,'07GRG_TN    ',  69.0000,1,     0.000,     0.000, 207,1207,1.03448, -24.6514, 207
248814,'07BRDFRD    ',  69.0000,1,     0.000,     0.000, 207,1207,1.03763, -19.8361, 207
248815,'07CHAMBG    ',  69.0000,1,     0.000,     0.000, 207,1207,1.04547, -20.3718, 207
248816,'07BRWVLT    ',  69.0000,1,     0.000,     0.000, 207,1207,1.04909, -30.1310, 207
248826,'07BRWRVL    ',  69.0000,1,     0.000,     0.000, 207,1207,1.04855, -30.1567, 207
248827,'07ROSEBG    ',  69.0000,1,     0.000,     0.000, 207,1207,1.01174, -34.6296, 207
248828,'07DAVIS     ',  69.0000,1,     0.000,     0.000, 207,1207,1.01790, -34.2723, 207
248829,'07BEDFRD    ', 161.0000,1,     0.000,     0.000, 207,1207,1.07932, -14.2741, 207
248830,'07RAMSY5    ', 345.0000,1,     0.000,     0.000, 207,1207,1.01327, -15.4729, 207
248831,'07HUBBL8    ', 138.0000,1,     0.000,     0.000, 207,1207,1.00810, -27.9539, 207
248832,'07ANDRSN    ',  69.0000,1,     0.000,     0.000, 207,1207,1.02966, -32.4152, 207
248833,'07CRANE     ',  69.0000,1,     0.000,     0.000, 207,1207,1.06146, -12.1084, 207
248839,'07RVETHT    ',  69.0000,1,     0.000,     0.000, 207,1207,1.00837, -33.8215, 207
248840,'07IRELAN    ',  69.0000,1,     0.000,     0.000, 207,1207,1.00324, -18.2953, 207
248841,'07SOLAR     ',  69.0000,1,     0.000,     0.000, 207,1207,1.05565, -11.0275, 207
248842,'07STAUTN    ', 138.0000,1,     0.000,     0.000, 207,1207,1.02212, -18.0496, 207
248843,'07SUNCOL    ',  69.0000,1,     0.000,     0.000, 207,1207,1.04614,  -9.4037, 207
248844,'07GLENWD    ',  69.0000,1,     0.000,     0.000, 207,1207,1.02113, -33.2027, 207
248845,'07SKNX_T    ',  69.0000,1,     0.000,     0.000, 207,1207,1.02628, -12.5687, 207
248851,'07GLENDL    ',  69.0000,1,     0.000,     0.000, 207,1207,1.00200, -17.7551, 207
248852,'07GLNDLT    ',  69.0000,1,     0.000,     0.000, 207,1207,1.00382, -17.5826, 207
248853,'07INTATJ    ',  69.0000,1,     0.000,     0.000, 207,1207,1.00788, -33.8415, 207
248854,'07LOGAN     ',  69.0000,1,     0.000,     0.000, 207,1207,1.03714, -33.0168, 207
248855,'07BLCK_B    ',  69.0000,1,     0.000,     0.000, 207,1207,1.02411, -12.6680, 207
248856,'07S_KNOX    ',  69.0000,1,     0.000,     0.000, 207,1207,1.02520, -12.6350, 207
248857,'07G-TOWN    ', 138.0000,1,     0.000,     0.000, 207,1207,1.00692, -23.3245, 207
248859,'07L_CDR     ',  69.0000,1,     0.000,     0.000, 207,1207,1.03720, -33.1818, 207
248860,'07DCKR_E    ',  69.0000,1,     0.000,     0.000, 207,1207,1.04525, -11.6096, 207
248861,'07TRY_69    ',  69.0000,1,     0.000,     0.000, 207,1207,1.03091, -22.0690, 207
248862,'07TROY      ',  69.0000,1,     0.000,     0.000, 207,1207,1.02813, -22.0992, 207
248863,'07WAUPTP    ',  69.0000,1,     0.000,     0.000, 207,1207,1.02359, -22.1405, 207
248864,'07WAP_HE    ',  69.0000,1,     0.000,     0.000, 207,1207,1.01924, -22.2176, 207
248865,'07TRY161    ', 161.0000,1,     0.000,     0.000, 207,1207,1.01832, -19.2789, 207
248866,'07AIRLIQ    ',  69.0000,1,     0.000,     0.000, 207,1207,1.06952, -11.4179, 207
248867,'07SEL_TP    ', 161.0000,1,     0.000,     0.000, 207,1207,1.03438, -23.8178, 207
248876,'07SELMR1    ', 161.0000,1,     0.000,     0.000, 207,1207,1.03346, -23.8915, 207
248877,'07SELMIR    ',  69.0000,1,     0.000,     0.000, 207,1207,1.06847, -24.3976, 207
248878,'07GPC       ', 161.0000,1,     0.000,     0.000, 207,1207,1.01170, -10.5502, 207
248879,'07LOKOUT    ',  69.0000,1,     0.000,     0.000, 207,1207,1.06520, -29.3054, 207
248880,'07TRIDTP    ',  69.0000,1,     0.000,     0.000, 207,1207,1.04331, -11.5195, 207
248881,'07FVSTAR    ',  69.0000,1,     0.000,     0.000, 207,1207,1.03936, -11.6514, 207
248882,'07OAKTWN    ',  69.0000,4,     0.000,     0.000, 207,1207,1.00000,   0.0000, 207
248883,'07DALE      ',  69.0000,1,     0.000,     0.000, 207,1207,1.01958, -23.7859, 207
248885,'07VICTR9    ',  69.0000,1,     0.000,     0.000, 207,1207,1.00517, -16.4842, 207
248887,'07NWTNVL    ', 161.0000,1,     0.000,     0.000, 207,1207,1.02402, -19.5989, 207
248888,'07LCPROJ    ', 161.0000,1,     0.000,     0.000, 207,1207,1.07974, -14.1956, 207
248889,'07WORTH1    ',  13.8000,2,     0.000,     0.000, 207,1207,1.00000,  -4.8921, 207
248890,'07WORTH2    ',  13.8000,2,     0.000,     0.000, 207,1207,1.00000,  -4.8921, 207
248893,'07LCPGD1    ',  13.8000,2,     0.000,     0.000, 207,1207,0.99510, -12.2654, 207
248894,'07LCPGD2    ',  13.8000,2,     0.000,     0.000, 207,1207,0.99510, -12.2654, 207
248895,'07LCPGD3    ',  13.8000,2,     0.000,     0.000, 207,1207,1.00000, -10.3519, 207
248897,'07TAS_1     ',  69.0000,1,     0.000,     0.000, 207,1207,1.07659, -18.4907, 207
248898,'07TASWL2    ', 161.0000,1,     0.000,     0.000, 207,1207,1.02504, -16.7163, 207
248901,'07RAT_1     ', 161.0000,1,     0.000,     0.000, 207,1207,1.02487, -10.0473, 207
248903,'07RAT_1G    ',  13.8000,2,     0.000,     0.000, 207,1207,1.02500,  -9.9992, 207
248904,'07RAT_2G    ',  13.8000,2,     0.000,     0.000, 207,1207,1.02500,  -9.9999, 207
248913,'07INDCRK    ',  69.0000,1,     0.000,     0.000, 207,1207,1.02799, -21.1809, 207
248914,'07Oaktap    ',  69.0000,1,     0.000,     0.000, 207,1207,1.0388308, -18.84872, 207
0 / END OF BUS DATA, BEGIN LOAD DATA
248403,'1 ',1, 207,1207,     36.39,     -4.85,     0.000,     0.000,     0.000,     0.000, 207
248406,'1 ',1, 207,1207,     3.989,     1.591,     0.000,     0.000,     0.000,     0.000, 207
248407,'1 ',1, 207,1207,     7.285,     6.062,     0.000,     0.000,     0.000,     0.000, 207
248408,'1 ',1, 207,1207,     2.997,     0.823,     0.000,     0.000,     0.000,     0.000, 207
248410,'1 ',1, 207,1207,     8.805,     5.506,     0.000,     0.000,     0.000,     0.000, 207
248412,'1 ',1, 207,1207,     3.104,     2.867,     0.000,     0.000,     0.000,     0.000, 207
248413,'1 ',1, 207,1207,     1.743,     1.346,     0.000,     0.000,     0.000,     0.000, 207
248427,'1 ',1, 207,1207,     0.587,     0.619,     0.000,     0.000,     0.000,     0.000, 207
248427,'2 ',1, 207,1207,     5.376,     2.305,     0.000,     0.000,     0.000,     0.000, 207
248428,'1 ',1, 207,1207,     44.37,     9.700,     0.000,     0.000,     0.000,     0.000, 207
248429,'1 ',1, 207,1207,     3.936,     1.574,     0.000,     0.000,     0.000,     0.000, 207
248431,'1 ',1, 207,1207,     2.904,     0.986,     0.000,     0.000,     0.000,     0.000, 207
248446,'1 ',1, 207,1207,     1.346,     0.825,     0.000,     0.000,     0.000,     0.000, 207
248446,'2 ',1, 207,1207,     1.691,     0.309,     0.000,     0.000,     0.000,     0.000, 207
248470,'1 ',1, 207,1207,     31.34,     27.16,     0.000,     0.000,     0.000,     0.000, 207
248474,'1 ',1, 207,1207,    14.180,     4.682,     0.000,     0.000,     0.000,     0.000, 207
248475,'1 ',1, 207,1207,    14.180,     4.682,     0.000,     0.000,     0.000,     0.000, 207
248514,'1 ',1, 207,1207,     4.388,     1.702,     0.000,     0.000,     0.000,     0.000, 207
248515,'1 ',1, 207,1207,     67.18,     -6.90,     0.000,     0.000,     0.000,     0.000, 207
248516,'1 ',1, 207,1207,     7.751,     2.962,     0.000,     0.000,     0.000,     0.000, 207
248516,'2 ',1, 207,1207,     7.121,     2.727,     0.000,     0.000,     0.000,     0.000, 207
248516,'3 ',1, 207,1207,     4.090,     1.632,     0.000,     0.000,     0.000,     0.000, 207
248521,'1 ',1, 207,1207,     2.352,     0.784,     0.000,     0.000,     0.000,     0.000, 207
248521,'2 ',1, 207,1207,     0.908,     0.377,     0.000,     0.000,     0.000,     0.000, 207
248535,'1 ',1, 207,1207,     4.253,     1.955,     0.000,     0.000,     0.000,     0.000, 207
248536,'1 ',1, 207,1207,     4.508,     1.303,     0.000,     0.000,     0.000,     0.000, 207
248539,'1 ',1, 207,1207,     1.512,     0.455,     0.000,     0.000,     0.000,     0.000, 207
248545,'1 ',1, 207,1207,     4.224,     1.756,     0.000,     0.000,     0.000,     0.000, 207
248547,'1 ',1, 207,1207,    147.63,     -17.4,     0.000,     0.000,     0.000,     0.000, 207
248548,'1 ',1, 207,1207,     3.552,     1.107,     0.000,     0.000,     0.000,     0.000, 207
248549,'1 ',1, 207,1207,     4.055,     1.564,     0.000,     0.000,     0.000,     0.000, 207
248560,'1 ',1, 207,1207,     2.148,     0.653,     0.000,     0.000,     0.000,     0.000, 207
248561,'1 ',1, 207,1207,     3.888,     1.296,     0.000,     0.000,     0.000,     0.000, 207
248562,'1 ',1, 207,1207,     3.471,     1.078,     0.000,     0.000,     0.000,     0.000, 207
248563,'1 ',1, 207,1207,     3.966,     1.058,     0.000,     0.000,     0.000,     0.000, 207
248569,'1 ',1, 207,1207,     2.512,     0.433,     0.000,     0.000,     0.000,     0.000, 207
248571,'1 ',1, 207,1207,     2.225,     0.656,     0.000,     0.000,     0.000,     0.000, 207
248572,'1 ',1, 207,1207,     4.622,     1.220,     0.000,     0.000,     0.000,     0.000, 207
248573,'1 ',1, 207,1207,     5.091,     1.640,     0.000,     0.000,     0.000,     0.000, 207
248576,'1 ',1, 207,1207,     2.567,     1.103,     0.000,     0.000,     0.000,     0.000, 207
248585,'1 ',1, 207,1207,     1.542,     0.839,     0.000,     0.000,     0.000,     0.000, 207
248586,'1 ',1, 207,1207,    24.507,     8.059,     0.000,     0.000,     0.000,     0.000, 207
248587,'1 ',1, 207,1207,    14.997,     4.928,     0.000,     0.000,     0.000,     0.000, 207
248588,'1 ',1, 207,1207,     3.384,     1.142,     0.000,     0.000,     0.000,     0.000, 207
248594,'1 ',1, 207,1207,     2.105,     0.495,     0.000,     0.000,     0.000,     0.000, 207
248595,'1 ',1, 207,1207,     5.558,     1.351,     0.000,     0.000,     0.000,     0.000, 207
248596,'1 ',1, 207,1207,     3.372,     1.329,     0.000,     0.000,     0.000,     0.000, 207
248598,'1 ',1, 207,1207,     1.265,     0.622,     0.000,     0.000,     0.000,     0.000, 207
248609,'1 ',1, 207,1207,     1.774,     0.591,     0.000,     0.000,     0.000,     0.000, 207
248611,'1 ',1, 207,1207,     2.301,     0.700,     0.000,     0.000,     0.000,     0.000, 207
248612,'1 ',1, 207,1207,     4.503,     1.256,     0.000,     0.000,     0.000,     0.000, 207
248613,'1 ',1, 207,1207,    11.610,     3.733,     0.000,     0.000,     0.000,     0.000, 207
248617,'1 ',1, 207,1207,     3.036,     1.037,     0.000,     0.000,     0.000,     0.000, 207
248619,'1 ',1, 207,1207,     2.747,     0.838,     0.000,     0.000,     0.000,     0.000, 207
248620,'1 ',1, 207,1207,     1.091,     0.434,     0.000,     0.000,     0.000,     0.000, 207
248632,'1 ',1, 207,1207,     2.472,     0.567,     0.000,     0.000,     0.000,     0.000, 207
248634,'1 ',1, 207,1207,     5.550,     1.779,     0.000,     0.000,     0.000,     0.000, 207
248636,'1 ',1, 207,1207,     5.738,     2.250,     0.000,     0.000,     0.000,     0.000, 207
248641,'1 ',1, 207,1207,     3.850,     1.384,     0.000,     0.000,     0.000,     0.000, 207
248642,'1 ',1, 207,1207,    -28.19,     17.38,     0.000,     0.000,     0.000,     0.000, 207
248643,'1 ',1, 207,1207,     8.089,     3.534,     0.000,     0.000,     0.000,     0.000, 207
248644,'1 ',1, 207,1207,     5.420,     1.991,     0.000,     0.000,     0.000,     0.000, 207
248645,'1 ',1, 207,1207,     3.671,     1.464,     0.000,     0.000,     0.000,     0.000, 207
248656,'1 ',1, 207,1207,     1.771,     0.641,     0.000,     0.000,     0.000,     0.000, 207
248657,'1 ',1, 207,1207,     5.021,     1.753,     0.000,     0.000,     0.000,     0.000, 207
248658,'1 ',1, 207,1207,     6.813,     2.113,     0.000,     0.000,     0.000,     0.000, 207
248660,'1 ',1, 207,1207,     6.948,     2.825,     0.000,     0.000,     0.000,     0.000, 207
248680,'1 ',1, 207,1207,     2.576,     0.727,     0.000,     0.000,     0.000,     0.000, 207
248681,'1 ',1, 207,1207,     3.717,     0.697,     0.000,     0.000,     0.000,     0.000, 207
248682,'1 ',1, 207,1207,     2.175,     0.851,     0.000,     0.000,     0.000,     0.000, 207
248684,'1 ',1, 207,1207,     3.650,     1.100,     0.000,     0.000,     0.000,     0.000, 207
248689,'1 ',1, 207,1207,     4.499,     1.268,     0.000,     0.000,     0.000,     0.000, 207
248691,'1 ',1, 207,1207,     5.687,     1.694,     0.000,     0.000,     0.000,     0.000, 207
248692,'1 ',1, 207,1207,     8.008,     2.662,     0.000,     0.000,     0.000,     0.000, 207
248704,'1 ',1, 207,1207,     73.44,     -2.55,     0.000,     0.000,     0.000,     0.000, 207
248705,'1 ',1, 207,1207,     2.520,     9.010,     0.000,     0.000,     0.000,     0.000, 207
248706,'1 ',1, 207,1207,     5.350,     0.690,     0.000,     0.000,     0.000,     0.000, 207
248711,'1 ',1, 207,1207,     5.765,     2.110,     0.000,     0.000,     0.000,     0.000, 207
248712,'1 ',1, 207,1207,     9.505,     3.215,     0.000,     0.000,     0.000,     0.000, 207
248713,'1 ',1, 207,1207,     3.589,     1.057,     0.000,     0.000,     0.000,     0.000, 207
248714,'1 ',1, 207,1207,     2.614,     0.732,     0.000,     0.000,     0.000,     0.000, 207
248715,'1 ',1, 207,1207,     5.630,     2.057,     0.000,     0.000,     0.000,     0.000, 207
248716,'1 ',1, 207,1207,     9.531,     1.902,     0.000,     0.000,     0.000,     0.000, 207
248727,'1 ',1, 207,1207,     7.742,     2.418,     0.000,     0.000,     0.000,     0.000, 207
248728,'1 ',1, 207,1207,     3.065,     1.480,     0.000,     0.000,     0.000,     0.000, 207
248729,'1 ',1, 207,1207,     9.568,     2.349,     0.000,     0.000,     0.000,     0.000, 207
248730,'1 ',1, 207,1207,     2.532,     0.707,     0.000,     0.000,     0.000,     0.000, 207
248731,'1 ',1, 207,1207,    13.585,     2.299,     0.000,     0.000,     0.000,     0.000, 207
248733,'1 ',1, 207,1207,     9.932,     1.251,     0.000,     0.000,     0.000,     0.000, 207
248733,'2 ',1, 207,1207,     0.275,     0.116,     0.000,     0.000,     0.000,     0.000, 207