1 'GENCLS' 1  100000.00          99999.000/ CONSTANT INTERNAL VOLTAGE GENERATOR MODEL