  1  'GENSAL'   1   6.0   0.033   0.078   6.4   0.0   0.8958   0.8645   0.1189  0.089   0.0521   0.0   0.0   /
  2  'GENCLS' 1   99999.0  0.0 /
