  1  'GENROU'   1   6.0   0.033   0.54   0.078   6.4   0.0   0.8958   0.8645   0.1189   0.1969   0.089   0.0521   0.0   0.0   /
  1 'IEEEG1' 1          0           0        25.000      0.10000
          0.0000      0.20000      0.10000      -1.0000      1.28
          0.0000      0.25000      0.40000       0.0000      0.50000
         0.60000       0.0000       0.0000       0.0000       0.0000
          0.0000       0.0000       0.0000    /
  2  'GENCLS' 1   99999.0  0.0 /
