0,   100.00, 33, 0, 1, 60.00     / PSS(R)E-33.4    THU, JUN 27 2013   0:31
TASMO MODEL; OUTPUT GENERATED 2012-09-17 17:52:35
SWINGBUS 1520 FOR 2012LPBL-1:2013-03-01:1:823--1-0-0-0
     1,'JUDY515S    ',  69.0000,1,  26,  99,  17,1.06394, -21.6284,1.10000,0.90000,1.10000,0.90000
     2,'MAYERTH     ', 138.0000,1,  40,  99,  17,1.03147, -19.5013,1.10000,0.90000,1.10000,0.90000
     3,'COLINTO7    ', 138.0000,1,  27,  99,  17,1.00732, -21.9955,1.10000,0.90000,1.10000,0.90000
     4,'WESTLOC7    ', 138.0000,1,  27,  99,  17,1.01838, -19.8348,1.10000,0.90000,1.10000,0.90000
     5,'CLYDE  7    ', 138.0000,1,  27,  99,  17,1.01192, -20.4468,1.10000,0.90000,1.10000,0.90000
     6,'DICKSOA9    ',   4.1600,1,  39,  99,   7,1.03286, -24.2754,1.10000,0.90000,1.10000,0.90000
     7,'BOYLE  7    ', 138.0000,1,  27,  99,  17,1.01159, -22.3950,1.10000,0.90000,1.10000,0.90000
     8,'WHI 3647    ', 138.0000,1,  26,  99,  17,1.04152, -19.9093,1.10000,0.90000,1.10000,0.90000
     9,'WHITECO7    ', 138.0000,1,  26,  99,  17,1.04085, -20.2150,1.10000,0.90000,1.10000,0.90000
    10,'WHITECO8    ',  69.0000,1,  26,  99,  17,1.06538, -19.3490,1.10000,0.90000,1.10000,0.90000
    12,'FOX CREE    ', 138.0000,1,  24,  99,  17,1.03980, -21.7731,1.10000,0.90000,1.10000,0.90000
    13,'KAYBOB 7    ', 138.0000,1,  24,  99,  17,1.02615, -21.5633,1.10000,0.90000,1.10000,0.90000
    14,'WESGEN 9    ',  13.8000,2,  27,  99,   4,1.02500, -16.6292,1.10000,0.90000,1.10000,0.90000
    15,'MTN COA7    ', 138.0000,1,  29,  99,  17,1.04427, -20.2730,1.10000,0.90000,1.10000,0.90000
    16,'FLATBUS7    ', 138.0000,1,  27,  99,  17,1.02332, -19.3716,1.10000,0.90000,1.10000,0.90000
    17,'COLD CR7    ', 138.0000,1,  29,  99,  17,1.04892, -20.7502,1.10000,0.90000,1.10000,0.90000
    18,'GULF RO7    ', 138.0000,1,  29,  99,  17,1.03095, -19.4080,1.10000,0.90000,1.10000,0.90000
    19,'WESGEN T    ', 138.0000,1,  27,  99,  17,1.02502, -19.2579,1.10000,0.90000,1.10000,0.90000
    20,'EDSON  7    ', 138.0000,1,  29,  99,  17,1.03937, -19.0311,1.10000,0.90000,1.10000,0.90000
    21,'WESGEN 7    ', 138.0000,1,  27,  99,   4,1.02706, -18.9543,1.10000,0.90000,1.10000,0.90000
    26,'ENTWIST7    ', 138.0000,1,  40,  99,  17,1.02181, -18.8525,1.10000,0.90000,1.10000,0.90000
    27,'WABAMUN8    ',  69.0000,1,  40,  99,  17,1.02362, -16.8767,1.10000,0.90000,1.10000,0.90000
    31,'FINCAST7    ', 138.0000,1,  52,  99,  17,1.01183, -18.4951,1.10000,0.90000,1.10000,0.90000
    32,'ONOWAY 8    ',  69.0000,1,  40,  99,  17,1.02420, -16.9057,1.10000,0.90000,1.10000,0.90000
    33,'BRAZEAA9    ',  13.2000,2,  30,  99,  17,1.02326, -20.9633,1.10000,0.90000,1.10000,0.90000
    35,'LODGEPO7    ', 138.0000,1,  30,  99,  17,1.01828, -20.0182,1.10000,0.90000,1.10000,0.90000
    36,'BRAZEAU7    ', 138.0000,1,  30,  99,  17,1.03317, -19.5761,1.10000,0.90000,1.10000,0.90000
    37,'HRT EXP7    ', 138.0000,1,  32,  99,  25,1.03130, -18.6884,1.10000,0.90000,1.10000,0.90000
    38,'BRAZ OUT    ', 138.0000,1,  30,  99,  17,1.03087, -20.2464,1.10000,0.90000,1.10000,0.90000
    39,'CYNTHIA7    ', 138.0000,1,  30,  99,  17,1.02708, -20.8958,1.10000,0.90000,1.10000,0.90000
    40,'N CALDE7    ', 138.0000,1,  60,  99,  17,1.00818, -19.8517,1.10000,0.90000,1.10000,0.90000
    41,'N BARRH7    ', 138.0000,1,  40,  99,  17,1.03746, -18.4150,1.10000,0.90000,1.10000,0.90000
    42,'AMOCO BR    ', 138.0000,1,  30,  99,  17,1.03153, -21.3046,1.10000,0.90000,1.10000,0.90000
    43,'SCOTF_4     ', 138.0000,2,  33,  99,  29,1.03000, -19.0979,1.10000,0.90000,1.10000,0.90000
    44,'FT ASBN7    ', 138.0000,1,  40,  99,  17,1.04853, -19.7799,1.10000,0.90000,1.10000,0.90000
    47,'SHERWOO7    ', 138.0000,1,  60,  99,  17,1.02004, -19.9024,1.10000,0.90000,1.10000,0.90000
    48,'DIAM SH7    ', 138.0000,1,  33,  99,  17,1.03016, -19.0520,1.10000,0.90000,1.10000,0.90000
    49,'KEYSTON7    ', 138.0000,1,  30,  99,  17,1.01908, -16.0231,1.10000,0.90000,1.10000,0.90000
    50,'RIVERSID    ', 138.0000,2,  33,  99, 211,1.02872, -19.2457,1.10000,0.90000,1.10000,0.90000
    51,'W PEMBI7    ', 138.0000,1,  30,  99,  17,1.02897, -21.3088,1.10000,0.90000,1.10000,0.90000
    52,'BLUERIDG    ', 138.0000,1,  26,  99,  17,1.03607, -20.0095,1.10000,0.90000,1.10000,0.90000
    53,'SANDYPT7    ', 138.0000,1,  48,  99,  17,1.03905, -15.7770,1.10000,0.90000,1.10000,0.90000
    55,'GULF OI7    ', 138.0000,1,  60,  99,  17,1.02572, -19.7755,1.10000,0.90000,1.10000,0.90000
    56,'IPPL ED7    ', 138.0000,1,  60,  99,  17,1.02654, -19.7414,1.10000,0.90000,1.10000,0.90000
    57,'LAMOURE4    ', 240.0000,1,  33,  99,  17,1.03303, -18.0393,1.10000,0.90000,1.10000,0.90000
    58,'FORT SA7    ', 138.0000,1,  60,  99,  17,1.02768, -19.1430,1.10000,0.90000,1.10000,0.90000
    59,'REDWATE7    ', 138.0000,1,  33,  99,  17,1.02032, -19.6089,1.10000,0.90000,1.10000,0.90000
    60,'BEAMER 7    ', 138.0000,1,  33,  99,  17,1.02574, -19.3378,1.10000,0.90000,1.10000,0.90000
    61,'UN CARB9    ', 138.0000,2,  33,  99, 191,1.03000, -18.9126,1.10000,0.90000,1.10000,0.90000
    62,'SHERRIT7    ', 138.0000,1,  33,  99,  17,1.02862, -19.1187,1.10000,0.90000,1.10000,0.90000
    63,'LAMOURE7    ', 138.0000,1,  33,  99,  17,1.03187, -18.9696,1.10000,0.90000,1.10000,0.90000
    64,'BANFF  7    ', 138.0000,1,  44,  99,  17,1.01959, -25.2085,1.10000,0.90000,1.10000,0.90000
    65,'BARDO  7    ', 138.0000,1,  31,  99,  17,1.00425, -19.6695,1.10000,0.90000,1.10000,0.90000
    66,'IOL 737L    ', 138.0000,1,  60,  99,  17,1.02502, -19.8136,1.10000,0.90000,1.10000,0.90000
    67,'BRUDERH7    ', 138.0000,1,  33,  99,  17,1.03064, -19.1695,1.10000,0.90000,1.10000,0.90000
    68,'N HOLDE7    ', 138.0000,1,  56,  99,  17,1.01215, -17.3783,1.10000,0.90000,1.10000,0.90000
    69,'IOL 738L    ', 138.0000,1,  60,  99,  17,1.02020, -20.1153,1.10000,0.90000,1.10000,0.90000
    70,'CAMROSE7    ', 138.0000,1,  31,  99,  17,0.99411, -21.0388,1.10000,0.90000,1.10000,0.90000
    71,'JARROW 8    ',  69.0000,1,  32,  99,  17,1.03850, -17.6615,1.10000,0.90000,1.10000,0.90000
    72,'JARROW 7    ', 138.0000,1,  32,  99,  17,1.02058, -17.6408,1.10000,0.90000,1.10000,0.90000
    73,'HARDIST7    ', 138.0000,1,  32,  99,  17,1.03148, -18.7240,1.10000,0.90000,1.10000,0.90000
    74,'METIS647    ', 138.0000,1,  37,  99,  17,1.03549, -16.1042,1.10000,0.90000,1.10000,0.90000
    75,'HUGHEND7    ', 138.0000,1,  37,  99,  17,1.02888, -17.6106,1.10000,0.90000,1.10000,0.90000
    76,'IPPL ST7    ', 138.0000,1,  56,  99,  17,1.04688, -10.4279,1.10000,0.90000,1.10000,0.90000
    77,'WAINWRI8    ',  69.0000,1,  32,  99,  17,1.03981, -17.7718,1.10000,0.90000,1.10000,0.90000
    78,'SEDGEWI7    ', 138.0000,1,  32,  99,  17,1.03064, -14.5564,1.10000,0.90000,1.10000,0.90000
    79,'BUFFALO7    ', 138.0000,1,  32,  99,  17,1.01348, -20.4692,1.10000,0.90000,1.10000,0.90000
    80,'BUCKLAK7    ', 138.0000,1,  30,  99,  17,1.00990, -18.7681,1.10000,0.90000,1.10000,0.90000
    81,'BIGSTON4    ', 240.0000,1,  31,  99,  17,1.02126, -17.2615,1.10000,0.90000,1.10000,0.90000
    82,'CHEVRON7    ', 138.0000,1,  24,  99,  17,1.02589, -21.5725,1.10000,0.90000,1.10000,0.90000
    83,'RBCUPIL7    ', 138.0000,1,  17,  99,  21,1.08630, -21.3051,1.10000,0.90000,1.10000,0.90000
    85,'MILLAR 7    ', 138.0000,1,  26,  99,  17,1.02806, -20.2213,1.10000,0.90000,1.10000,0.90000
    86,'PROVOST7    ', 138.0000,1,  37,  99,  17,1.02493, -16.5208,1.10000,0.90000,1.10000,0.90000
    87,'METIS644    ', 240.0000,1,  37,  99,  17,1.05998, -12.7668,1.10000,0.90000,1.10000,0.90000
    88,'BICKERD7    ', 138.0000,1,  29,  99,  17,1.04157, -18.4398,1.10000,0.90000,1.10000,0.90000
    89,'E EDMON7    ', 138.0000,1,  60,  99,  17,1.02725, -19.7041,1.10000,0.90000,1.10000,0.90000
    90,'BICKERD4    ', 240.0000,1,  29,  99,  17,1.08918, -16.6177,1.10000,0.90000,1.10000,0.90000
    91,'NISKU  7    ', 138.0000,1,  60,  99,  17,0.99808, -22.2634,1.10000,0.90000,1.10000,0.90000
    93,'WETASKI7    ', 138.0000,1,  31,  99,  17,1.01745, -21.3984,1.10000,0.90000,1.10000,0.90000
    94,'ERVICK 7    ', 138.0000,1,  31,  99,  17,0.99710, -21.2721,1.10000,0.90000,1.10000,0.90000
    95,'PONOKA 7    ', 138.0000,1,  31,  99,  17,0.99954, -22.1354,1.10000,0.90000,1.10000,0.90000
    96,'DEVON  7    ', 138.0000,1,  60,  99,  17,0.98678, -22.3854,1.10000,0.90000,1.10000,0.90000
    97,'ECKVILL7    ', 138.0000,1,  35,  99,  17,1.02731, -20.3804,1.10000,0.90000,1.10000,0.90000
    98,'RIMBEY 7    ', 138.0000,1,  35,  99,  17,1.01436, -20.9132,1.10000,0.90000,1.10000,0.90000
    99,'BENALTO7    ', 138.0000,1,  35,  99,  17,1.03611, -19.9989,1.10000,0.90000,1.10000,0.90000
   100,'ROCKY M7    ', 138.0000,1,  38,  99,  17,1.00547, -21.6090,1.10000,0.90000,1.10000,0.90000
   101,'COOKING7    ', 138.0000,1,  60,  99,  17,1.00793, -19.9963,1.10000,0.90000,1.10000,0.90000
   102,'BIGHORN1    ',  13.8000,2,  34,  99,  17,0.98513, -16.9060,1.10000,0.90000,1.10000,0.90000
   103,'BIG HOR7    ', 138.0000,1,  34,  99,  17,1.00483, -16.9060,1.10000,0.90000,1.10000,0.90000
   104,'STRACHA7    ', 138.0000,1,  38,  99,  17,1.00555, -21.6977,1.10000,0.90000,1.10000,0.90000
   105,'PIGEON 7    ', 138.0000,1,  31,  99,  17,1.00756, -21.8368,1.10000,0.90000,1.10000,0.90000
   106,'DEERLAN7    ', 138.0000,1,  33,  99,  17,1.03328, -19.0508,1.10000,0.90000,1.10000,0.90000
   107,'SUNDRE 7    ', 138.0000,1,  38,  99,  17,0.97608, -24.1794,1.10000,0.90000,1.10000,0.90000
   108,'BIGHORN2    ',  13.8000,2,  34,  99,  17,0.97200, -10.2252,1.10000,0.90000,1.10000,0.90000
   109,'DEERLAN4    ', 240.0000,1,  33,  99,  17,1.04477, -18.1431,1.10000,0.90000,1.10000,0.90000
   110,'IPL EDM7    ', 138.0000,1,  60,  99,  17,1.02654, -19.7419,1.10000,0.90000,1.10000,0.90000
   111,'SANDHIL7    ', 138.0000,1,  48,  99,  17,1.03902, -15.7939,1.10000,0.90000,1.10000,0.90000
   112,'SUNKEN7     ', 138.0000,1,  37,  99,  17,1.03531, -16.1275,1.10000,0.90000,1.10000,0.90000
   113,'BLACKFA7    ', 138.0000,1,  35,  99,  17,1.00773, -21.6005,1.10000,0.90000,1.10000,0.90000
   114,'LACOMBE7    ', 138.0000,1,  35,  99,  17,1.00067, -21.9792,1.10000,0.90000,1.10000,0.90000
   115,'S RED DE    ', 138.0000,1,  35,  99,  17,1.02105, -20.9909,1.10000,0.90000,1.10000,0.90000
   116,'W LACOMB    ', 138.0000,1,  35,  99,  17,1.00348, -21.8735,1.10000,0.90000,1.10000,0.90000
   117,'RED DE A    ', 138.0000,1,  35,  99,  17,1.02559, -20.7991,1.10000,0.90000,1.10000,0.90000
   118,'RED DE B    ', 138.0000,1,  35,  99,  17,1.02559, -20.7991,1.10000,0.90000,1.10000,0.90000
   119,'N RED D7    ', 138.0000,1,  35,  99,  17,1.01878, -21.0247,1.10000,0.90000,1.10000,0.90000
   120,'INNISFA7    ', 138.0000,1,  39,  99,  17,1.00361, -22.6853,1.10000,0.90000,1.10000,0.90000
   121,'OLDS   7    ', 138.0000,1,  39,  99,  17,0.98490, -24.4620,1.10000,0.90000,1.10000,0.90000
   122,'MADDEN 7    ', 138.0000,1,  39,  99,  17,0.98356, -25.6107,1.10000,0.90000,1.10000,0.90000
   123,'DIDSBURY    ', 138.0000,1,  39,  99,  17,0.98562, -24.9232,1.10000,0.90000,1.10000,0.90000
   124,'HARMATT7    ', 138.0000,1,  39,  99,  17,0.98483, -24.9011,1.10000,0.90000,1.10000,0.90000
   125,'YASAA7      ', 138.0000,1,  60,  99,  17,1.02613, -19.7548,1.10000,0.90000,1.10000,0.90000
   126,'SHELL H7    ', 138.0000,1,  39,  99,  17,0.98453, -24.9525,1.10000,0.90000,1.10000,0.90000
   127,'BEDDING2    ', 138.0000,1,   6,  99,   3,1.02225, -24.1991,1.10000,0.90000,1.10000,0.90000
   128,'ELLERSLI    ', 240.0000,1,  60,  99,  17,1.03962, -14.8594,1.10000,0.90000,1.10000,0.90000
   130,'SUND#3GN    ',  20.0000,2,  40,  99,  17,1.02000,  -4.9886,1.10000,0.90000,1.10000,0.90000
   131,'SUNDANA8    ',  69.0000,1,  40,  99,  17,1.01383, -14.8742,1.10000,0.90000,1.10000,0.90000
   132,'SUNDANC7    ', 138.0000,1,  40,  99,  17,1.02916, -13.0889,1.10000,0.90000,1.10000,0.90000
   133,'WABAMUN4    ', 240.0000,1,  40,  99,  17,1.06417, -14.4168,1.10000,0.90000,1.10000,0.90000
   134,'WABAMUN7    ', 138.0000,1,  40,  99,  17,1.03109, -17.1985,1.10000,0.90000,1.10000,0.90000
   135,'SUNDANC4    ', 240.0000,1,  40,  99,  17,1.07865, -12.7446,1.10000,0.90000,1.10000,0.90000
   136,'E EDMON4    ', 240.0000,1,  60,  99,  17,1.03165, -15.9729,1.10000,0.90000,1.10000,0.90000
   137,'N CALDE4    ', 240.0000,1,  60,  99,  17,1.03579, -17.4103,1.10000,0.90000,1.10000,0.90000
   138,'N BARRH4    ', 240.0000,1,  40,  99,  17,1.09575, -16.4847,1.10000,0.90000,1.10000,0.90000
   141,'DALEHUR7    ', 138.0000,1,  29,  99,  17,1.04513, -20.2199,1.10000,0.90000,1.10000,0.90000
   142,'KINGMAN7    ', 138.0000,1,  31,  99,  17,0.99956, -20.2018,1.10000,0.90000,1.10000,0.90000
   144,'ALGAR  7    ', 138.0000,1,  61,  99,   1,1.06302, -13.8274,1.10000,0.90000,1.10000,0.90000
   147,'GAETZ  4    ', 240.0000,1,  35,  99,  17,1.03413, -18.8326,1.10000,0.90000,1.10000,0.90000
   148,'GAETZ  7    ', 138.0000,1,  35,  99,  17,1.02192, -20.7134,1.10000,0.90000,1.10000,0.90000
   150,'WILLESD4    ', 240.0000,1,  30,  99,  17,1.05935, -18.1211,1.10000,0.90000,1.10000,0.90000
   151,'BRAZ#1 9    ',  13.8000,2,  30,  99,  17,0.98000, -15.7097,1.10000,0.90000,1.10000,0.90000
   152,'RED DEE4    ', 240.0000,1,  35,  99,  17,1.04173, -18.4960,1.10000,0.90000,1.10000,0.90000
   153,'BRAZEAU4    ', 240.0000,1,  30,  99,  17,1.05560, -18.0935,1.10000,0.90000,1.10000,0.90000
   154,'BRAZ#2 9    ',  13.8000,2,  30,  99,  17,0.98508, -18.0935,1.10000,0.90000,1.10000,0.90000
   155,'BENALTO4    ', 240.0000,1,  35,  99,  17,1.06355, -17.8596,1.10000,0.90000,1.10000,0.90000
   156,'E CROSS4    ', 240.0000,1,  57,  99,  17,1.03910, -20.5549,1.10000,0.90000,1.10000,0.90000
   157,'COCHIN 8    ',  69.0000,1,  32,  99, 241,1.03975, -17.7743,1.10000,0.90000,1.10000,0.90000
   158,'LANGDON2    ', 500.0000,1,   6,  99,  17,1.05617, -16.7059,1.10000,0.90000,1.10000,0.90000
   159,'LANGDON4    ', 240.0000,1,   6,  99,  17,1.05400, -18.8545,1.10000,0.90000,1.10000,0.90000
   160,'JANET  4    ', 240.0000,1,   6,  99,  17,1.05015, -21.0291,1.10000,0.90000,1.10000,0.90000
   161,'SARCEE 4    ', 240.0000,1,   6,  99,  17,1.05111, -23.3969,1.10000,0.90000,1.10000,0.90000
   162,'E CALGAR    ', 240.0000,1,   6,  99,  17,1.03968, -22.6006,1.10000,0.90000,1.10000,0.90000
   163,'SAGITAW4    ', 240.0000,1,  26,  99,  17,1.07596, -18.2436,1.10000,0.90000,1.10000,0.90000
   164,'SAGITAW7    ', 138.0000,1,  26,  99,  17,1.04384, -19.5954,1.10000,0.90000,1.10000,0.90000
   165,'PEIGAN 4    ', 240.0000,1,  53,  99, 191,1.02730, -15.5303,1.10000,0.90000,1.10000,0.90000
   166,'PEIGAN 7    ', 138.0000,1,  53,  99, 191,1.03266, -12.7417,1.10000,0.90000,1.10000,0.90000
   167,'N LETHB4    ', 240.0000,1,  54,  99,  17,1.02752, -16.6144,1.10000,0.90000,1.10000,0.90000
   168,'SUNSHIN8    ',  69.0000,1,  44,  99,  17,0.99941, -32.1400,1.10000,0.90000,1.10000,0.90000
   169,'CAN CEM7    ', 138.0000,1,  44,  99,  17,1.02139, -25.0133,1.10000,0.90000,1.10000,0.90000
   170,'COCHRAN7    ', 138.0000,1,  44,  99,  17,0.99060, -27.3154,1.10000,0.90000,1.10000,0.90000
   171,'SEEBE  7    ', 138.0000,1,  44,  99, 191,1.01920, -24.8810,1.10000,0.90000,1.10000,0.90000
   172,'HORS GEN    ',  12.0000,2,  44,  99,  17,1.02500, -22.9857,1.10000,0.90000,1.10000,0.90000
   173,'BRETV A7    ', 138.0000,1,  60,  99,  17,1.02571, -19.7745,1.10000,0.90000,1.10000,0.90000
   174,'SPRAY G1    ',  13.2000,2,  44,  99,  17,1.04663, -19.3941,1.10000,0.90000,1.10000,0.90000
   175,'CASCADE7    ', 138.0000,1,  44,  99, 194,1.02275, -25.0539,1.10000,0.90000,1.10000,0.90000
   176,'CASCADE9    ',  13.2000,2,  44,  99, 194,1.04775, -22.8750,1.10000,0.90000,1.10000,0.90000
   177,'AIRDRIE     ', 138.0000,1,  57,  99,  17,1.01191, -23.1811,1.10000,0.90000,1.10000,0.90000
   178,'BANFF  8    ',  69.0000,1,  44,  99,  17,1.00444, -31.8879,1.10000,0.90000,1.10000,0.90000
   179,'MARIANA7    ', 138.0000,1,  61,  99,   1,1.06427, -14.2630,1.10000,0.90000,1.10000,0.90000
   180,'GHOST  7    ', 138.0000,1,  44,  99,  17,1.00333, -26.0081,1.10000,0.90000,1.10000,0.90000
   181,'GHOST A9    ',  13.2000,2,  44,  99,  17,1.00000, -24.1091,1.10000,0.90000,1.10000,0.90000
   183,'BEARSPWB    ',  13.2000,2,  44,  99,  17,1.03122, -26.8890,1.10000,0.90000,1.10000,0.90000
   184,'BEARSPAW    ', 138.0000,1,  44,  99,  17,0.99702, -27.1710,1.10000,0.90000,1.10000,0.90000
   187,'BEDDING1    ', 240.0000,1,   6,  99,   3,1.04261, -21.6641,1.10000,0.90000,1.10000,0.90000
   188,'ANG COCA    ',  25.0000,1,  44,  99,  17,1.03627, -29.1832,1.10000,0.90000,1.10000,0.90000
   189,'ANG COCB    ',  13.8000,2,  44,  99,  17,1.00276, -31.5285,1.10000,0.90000,1.10000,0.90000
   190,'SPRAY G2    ',  13.2000,2,  44,  99,  17,1.02720, -24.6882,1.10000,0.90000,1.10000,0.90000
   191,'ANG COCH    ', 138.0000,1,  44,  99,  17,0.98935, -27.2988,1.10000,0.90000,1.10000,0.90000
   192,'NELSON L    ', 138.0000,1,  31,  99,  17,0.99557, -22.3192,1.10000,0.90000,1.10000,0.90000
   193,'KANANAS7    ', 138.0000,1,  44,  99,  17,1.01971, -24.8483,1.10000,0.90000,1.10000,0.90000
   194,'LAKE LO8    ',  69.0000,1,  44,  99,  17,0.96787, -32.7184,1.10000,0.90000,1.10000,0.90000
   195,'RUNDLE S    ', 138.0000,1,  44,  99,  17,1.02691, -24.7625,1.10000,0.90000,1.10000,0.90000
   196,'KANANAS9    ',  12.0000,2,  44,  99,  17,1.03366, -22.8214,1.10000,0.90000,1.10000,0.90000
   197,'RUNDLE G    ',  13.8000,2,  44,  99,  17,1.04761, -21.7137,1.10000,0.90000,1.10000,0.90000
   198,'BALZAC 7    ', 138.0000,1,   6,  99,  17,1.02300, -24.0702,1.10000,0.90000,1.10000,0.90000
   199,'SHELL J7    ', 138.0000,1,  44,  99,  17,1.00090, -26.3070,1.10000,0.90000,1.10000,0.90000
   201,'JUMPPND7    ', 138.0000,1,  44,  99,  17,1.01095, -25.6399,1.10000,0.90000,1.10000,0.90000
   202,'SARCEE 7    ', 138.0000,1,   6,  99,  17,1.00566, -26.3447,1.10000,0.90000,1.10000,0.90000
   203,'SARCEE C    ',  13.8000,1,   6,  99,  17,1.05817, -26.4370,1.10000,0.90000,1.10000,0.90000
   204,'MCMILLA4    ', 240.0000,1,  61,  99,   1,1.11010, -13.5719,1.10000,0.90000,1.10000,0.90000
   205,'AMOCO R7    ', 138.0000,1,  38,  99,  17,0.98016, -23.5144,1.10000,0.90000,1.10000,0.90000
   207,'JANET  7    ', 138.0000,1,   6,  99,  17,1.01637, -24.8310,1.10000,0.90000,1.10000,0.90000
   208,'ENMX2S 7    ', 138.0000,1,   6,  99,   3,1.00879, -26.7746,1.10000,0.90000,1.10000,0.90000
   209,'BRETONA1    ', 138.0000,1,  60,  99,  17,1.01761, -19.9456,1.10000,0.90000,1.10000,0.90000
   211,'MOUNT A7    ', 138.0000,1,  44,  99,  17,1.02478, -24.7987,1.10000,0.90000,1.10000,0.90000
   213,'HAIGRIVE    ', 138.0000,1,  17,  99,   1,1.10234, -23.0815,1.10000,0.90000,1.10000,0.90000
   214,'POCATEA9    ',  13.8000,2,  44,  99,  17,1.00149, -19.6735,1.10000,0.90000,1.10000,0.90000
   215,'TEX.W.P7    ', 138.0000,1,  30,  99,  17,1.02356, -20.7838,1.10000,0.90000,1.10000,0.90000
   216,'BARRIER7    ', 138.0000,1,  44,  99,  17,1.02215, -24.8090,1.10000,0.90000,1.10000,0.90000
   218,'BLACKMUD    ', 138.0000,1,  60,  99,  17,0.99340, -22.3821,1.10000,0.90000,1.10000,0.90000
   219,'KILLARN7    ', 138.0000,1,  37,  99,  17,1.01568, -19.9875,1.10000,0.90000,1.10000,0.90000
   220,'HAYTER 7    ', 138.0000,1,  37,  99,  17,1.00046, -20.6085,1.10000,0.90000,1.10000,0.90000
   221,'CRR-W1      ', 240.0000,1,  53,  99,  58,1.02455, -14.9384,1.10000,0.90000,1.10000,0.90000
   222,'BARRIER9    ',  13.2000,2,  44,  99,  17,1.03000, -22.1316,1.10000,0.90000,1.10000,0.90000
   223,'PINCHER8    ',  69.0000,1,  53,  99,  17,1.03055, -14.1612,1.10000,0.90000,1.10000,0.90000
   224,'PINCHER7    ', 138.0000,1,  53,  99,  17,1.03664, -13.8089,1.10000,0.90000,1.10000,0.90000
   225,'WARE JCT    ', 240.0000,1,  47,  99,  17,1.06783, -10.5743,1.10000,0.90000,1.10000,0.90000
   226,'DRYWOOD8    ',  69.0000,1,  55,  99,  17,1.03084, -15.4555,1.10000,0.90000,1.10000,0.90000
   227,'SHELL WA    ',  69.0000,1,  55,  99,  17,1.01826, -15.5492,1.10000,0.90000,1.10000,0.90000
   228,'YARROW 8    ',  69.0000,1,  55,  99,  17,1.03070, -15.4594,1.10000,0.90000,1.10000,0.90000
   229,'170AL-TA    ', 138.0000,1,  53,  99,  17,1.04049, -14.4377,1.10000,0.90000,1.10000,0.90000
   230,'OLDMAN D    ', 138.0000,1,  53,  99,   1,1.03917, -13.3285,1.10000,0.90000,1.10000,0.90000
   231,'N SHELL8    ',  69.0000,1,  55,  99,  17,1.01731, -15.5888,1.10000,0.90000,1.10000,0.90000
   232,'COLEMAN7    ', 138.0000,1,  53,  99,  17,1.03940, -15.1874,1.10000,0.90000,1.10000,0.90000
   233,'DRYWOOD7    ', 138.0000,1,  55,  99,  17,1.02797, -14.1679,1.10000,0.90000,1.10000,0.90000
   234,'CASTRIV1    ', 138.0000,1,  53,  99,  44,1.03714, -13.8423,1.10000,0.90000,1.10000,0.90000
   235,'STAVELY7    ', 138.0000,1,  49,  99,  17,0.99627, -20.7230,1.10000,0.90000,1.10000,0.90000
   236,'HIGH RI8    ',  69.0000,1,  46,  99,  17,1.03550, -26.5813,1.10000,0.90000,1.10000,0.90000
   237,'FORT MA7    ', 138.0000,1,  53,  99,  17,1.00867, -18.4140,1.10000,0.90000,1.10000,0.90000
   238,'BLACK D7    ', 138.0000,1,  46,  99,  17,0.97582, -25.9209,1.10000,0.90000,1.10000,0.90000
   239,'OKOTOKS7    ', 138.0000,1,  46,  99,  17,0.99086, -25.6223,1.10000,0.90000,1.10000,0.90000
   240,'MAGCAN 7    ', 138.0000,1,  46,  99,  17,0.99110, -25.6716,1.10000,0.90000,1.10000,0.90000
   241,'BLACK D8    ',  69.0000,1,  46,  99,  17,0.99179, -27.5296,1.10000,0.90000,1.10000,0.90000
   242,'HIGH RI7    ', 138.0000,1,  46,  99,  17,0.98361, -25.5180,1.10000,0.90000,1.10000,0.90000
   243,'HARTELL7    ', 138.0000,1,  46,  99,  17,0.97760, -25.8403,1.10000,0.90000,1.10000,0.90000
   244,'VULCAN 7    ', 138.0000,1,  49,  99,  17,0.99798, -21.6437,1.10000,0.90000,1.10000,0.90000
   245,'GLENWOO8    ',  69.0000,1,  55,  99, 191,1.01558, -16.8633,1.10000,0.90000,1.10000,0.90000
   246,'SPRING 8    ',  69.0000,1,  55,  99,  17,1.00928, -17.6072,1.10000,0.90000,1.10000,0.90000
   247,'CAVALIER    ', 138.0000,1,  45,  99,  42,1.03903, -20.0075,1.10000,0.90000,1.10000,0.90000
   248,'MAHKESES    ', 138.0000,2,  28,  99,  36,1.04000, -17.1552,1.10000,0.90000,1.10000,0.90000
   249,'878S        ', 138.0000,1,  19,  99,   1,1.08194, -26.3452,1.10000,0.90000,1.10000,0.90000
   250,'DUCHESS7    ', 138.0000,1,  47,  99,  17,1.01576, -16.1358,1.10000,0.90000,1.10000,0.90000
   251,'GARDN1      ', 138.0000,1,  55,  99,  10,1.01452, -17.5417,1.10000,0.90000,1.10000,0.90000
   252,'CARSELA7    ', 138.0000,1,  45,  99,  17,1.00679, -22.8116,1.10000,0.90000,1.10000,0.90000
   253,'BLACKIE7    ', 138.0000,1,  45,  99,  17,1.00312, -22.4181,1.10000,0.90000,1.10000,0.90000
   254,'GLEICHE7    ', 138.0000,1,  45,  99, 191,1.02329, -20.7228,1.10000,0.90000,1.10000,0.90000
   255,'CHINOOK9    ',  34.5000,2,  53,  99,  17,0.99230, -13.3257,1.10000,0.90000,1.10000,0.90000
   256,'BROOKS 7    ', 138.0000,1,  47,  99,  17,1.02237, -15.8239,1.10000,0.90000,1.10000,0.90000
   257,'LIMESTO7    ', 138.0000,1,  38,  99,  17,0.96754, -24.1471,1.10000,0.90000,1.10000,0.90000
   258,'ELLERSLI    ', 500.0000,1,  60,  99,  17,1.04892,  -8.6683,1.10000,0.90000,1.10000,0.90000
   259,'STRATHM7    ', 138.0000,1,  45,  99,  17,1.02402, -22.0344,1.10000,0.90000,1.10000,0.90000
   260,'JENNER 4    ', 240.0000,1,  48,  99,  17,1.07539, -12.8392,1.10000,0.90000,1.10000,0.90000
   262,'DOME EM4    ', 240.0000,1,  48,  99,  17,1.08228, -14.5977,1.10000,0.90000,1.10000,0.90000
   263,'EMP LIQ7    ', 138.0000,1,  48,  99,  17,1.03681, -16.0771,1.10000,0.90000,1.10000,0.90000
   264,'COWLEY 8    ',  69.0000,1,  53,  99,  17,1.03878, -13.5994,1.10000,0.90000,1.10000,0.90000
   265,'US WIND9    ',  34.5000,2,  53,  99,  17,0.99205, -13.5729,1.10000,0.90000,1.10000,0.90000
   266,'EMPRESA7    ', 138.0000,1,  48,  99,  17,1.03891, -15.7558,1.10000,0.90000,1.10000,0.90000
   267,'DOME EM7    ', 138.0000,1,  48,  99,  17,1.03921, -15.7696,1.10000,0.90000,1.10000,0.90000
   268,'DOME EA9    ',  13.8000,2,  48,  99,  17,1.03023, -15.4944,1.10000,0.90000,1.10000,0.90000
   269,'BURDETT7    ', 138.0000,1,  52,  99,  17,1.00700, -18.6212,1.10000,0.90000,1.10000,0.90000
   270,'SUFFIEL7    ', 138.0000,1,   4,  99,  17,0.99739, -17.5567,1.10000,0.90000,1.10000,0.90000
   271,'BULLS H7    ', 138.0000,1,   4,  99,  17,1.02043, -17.3715,1.10000,0.90000,1.10000,0.90000
   272,'TABER  7    ', 138.0000,1,  52,  99,  17,1.01564, -18.8799,1.10000,0.90000,1.10000,0.90000
   274,'VAUXHAL7    ', 138.0000,1,  52,  99,  17,1.00916, -18.2808,1.10000,0.90000,1.10000,0.90000
   275,'TILLEY 7    ', 138.0000,1,  47,  99,  17,1.00259, -16.8116,1.10000,0.90000,1.10000,0.90000
   276,'W BROOK7    ', 138.0000,1,  47,  99,  17,1.02620, -15.3969,1.10000,0.90000,1.10000,0.90000
   277,'WESTFLD7    ', 138.0000,1,  52,  99,  17,1.00586, -18.6930,1.10000,0.90000,1.10000,0.90000
   278,'WARNER 8    ',  69.0000,1,  55,  99,  17,0.98751, -19.8313,1.10000,0.90000,1.10000,0.90000
   279,'STAVELEY    ', 138.0000,1,  49,  99,  17,0.99951, -20.5678,1.10000,0.90000,1.10000,0.90000
   280,'STIRLIN8    ',  69.0000,1,  55,  99,  17,1.02442, -19.6696,1.10000,0.90000,1.10000,0.90000
   282,'HEARTLAK    ', 240.0000,1,  27,  99,   1,1.10531, -16.7238,1.10000,0.90000,1.10000,0.90000
   283,'CANMORE7    ', 138.0000,1,  44,  99,  17,1.02630, -24.9671,1.10000,0.90000,1.10000,0.90000
   284,'BUTTE7      ', 138.0000,1,   4,  99,  17,1.01714, -17.5140,1.10000,0.90000,1.10000,0.90000
   285,'BAYMAG      ', 138.0000,1,  44,  99,  17,1.02278, -24.9995,1.10000,0.90000,1.10000,0.90000
   286,'ENCHANT7    ', 138.0000,1,  52,  99,  17,1.00845, -17.6348,1.10000,0.90000,1.10000,0.90000
   287,'DOME EB9    ',  13.8000,2,  48,  99,  17,1.02813, -16.7213,1.10000,0.90000,1.10000,0.90000
   288,'DOME EC9    ',  13.8000,2,  48,  99,  17,1.01902, -15.1902,1.10000,0.90000,1.10000,0.90000
   289,'DOME EM9    ',  13.8000,2,  48,  99,  17,1.01822, -15.4372,1.10000,0.90000,1.10000,0.90000
   290,'BALZ COG    ', 138.0000,1,   6,  99,  42,1.02575, -23.8622,1.10000,0.90000,1.10000,0.90000
   291,'CONRAD 7    ', 138.0000,1,  52,  99,  17,1.00684, -18.1935,1.10000,0.90000,1.10000,0.90000
   292,'JENNER7     ', 138.0000,1,  48,  99,  17,1.01861, -16.7991,1.10000,0.90000,1.10000,0.90000
   293,'STIRLIN7    ', 138.0000,1,  55,  99,  17,0.99926, -18.8667,1.10000,0.90000,1.10000,0.90000
   295,'DRYCREEK    ', 138.0000,1,  57,  99,  17,1.01561, -23.7692,1.10000,0.90000,1.10000,0.90000
   296,'GOOSEL7     ', 138.0000,1,  53,  99,  17,1.03669, -13.8031,1.10000,0.90000,1.10000,0.90000
   297,'WAINWRI7    ', 138.0000,1,  32,  99,  17,1.00559, -18.9400,1.10000,0.90000,1.10000,0.90000
   298,'ALB NEWS    ', 240.0000,1,  26,  99,  17,1.06768, -18.8262,1.10000,0.90000,1.10000,0.90000
   299,'SUND866S    ',  69.0000,1,  40,  99,  17,1.01417, -15.5705,1.10000,0.90000,1.10000,0.90000
   300,'KEEP320P    ',  69.0000,1,  40,  99,  17,1.01609, -15.5132,1.10000,0.90000,1.10000,0.90000
   301,'KEEPHIL8    ',  69.0000,1,  40,  99,  17,1.01417, -15.5706,1.10000,0.90000,1.10000,0.90000
   302,'MARION 7    ', 138.0000,1,  40,  99,  17,1.02850, -13.2823,1.10000,0.90000,1.10000,0.90000
   303,'STELCO 1    ', 138.0000,1,  60,  99,  17,1.02846, -19.7556,1.10000,0.90000,1.10000,0.90000
   304,'PLAMOND7    ', 138.0000,1,  27,  99,  17,1.01330, -22.0787,1.10000,0.90000,1.10000,0.90000
   305,'LAC LA 7    ', 138.0000,1,  27,  99,  17,1.00880, -21.2089,1.10000,0.90000,1.10000,0.90000
   306,'WINEFRE7    ', 138.0000,1,  27,  99,  17,1.04989, -19.6657,1.10000,0.90000,1.10000,0.90000
   308,'FLATLK-2    ', 138.0000,1,  27,  99,  17,1.02146, -22.4002,1.10000,0.90000,1.10000,0.90000
   309,'MCMILLA7    ', 138.0000,1,  61,  99,   1,1.08002, -13.9174,1.10000,0.90000,1.10000,0.90000
   310,'SPRAY  S    ', 138.0000,1,  44,  99,  17,1.02720, -24.6882,1.10000,0.90000,1.10000,0.90000
   311,'LEDUC1      ', 138.0000,1,  60,  99,  17,0.98004, -22.8584,1.10000,0.90000,1.10000,0.90000
   312,'E CROSS7    ', 138.0000,1,  57,  99,  17,1.03771, -21.8982,1.10000,0.90000,1.10000,0.90000
   313,'JOSEPH1     ', 240.0000,1,  33,  99,  17,1.03447, -18.3428,1.10000,0.90000,1.10000,0.90000
   314,'JOSEPH2     ', 138.0000,1,  33,  99,  17,1.03051, -19.0378,1.10000,0.90000,1.10000,0.90000
   315,'HUSSAR      ', 138.0000,1,  45,  99,  17,1.03554, -20.5736,1.10000,0.90000,1.10000,0.90000
   316,'LAURATP     ',  69.0000,1,  26,  99,  17,1.05276, -20.9574,1.10000,0.90000,1.10000,0.90000
   317,'CARSONA8    ',  69.0000,1,  26,  99,  17,1.05270, -20.9598,1.10000,0.90000,1.10000,0.90000
   318,'W CROSSF    ', 138.0000,1,  57,  99,  17,1.02333, -22.1697,1.10000,0.90000,1.10000,0.90000
   319,'COALSPU8    ',  69.0000,1,  29,  99,  17,1.03978, -19.5508,1.10000,0.90000,1.10000,0.90000
   320,'CHAPPIC7    ', 138.0000,1,   4,  99,  17,1.02183, -16.7808,1.10000,0.90000,1.10000,0.90000
   321,'HEARTLAK    ', 138.0000,1,  27,  99,   1,1.02063, -18.2888,1.10000,0.90000,1.10000,0.90000
   322,'CARSON 8    ',  69.0000,1,  26,  99,  17,1.05274, -20.8120,1.10000,0.90000,1.10000,0.90000
   323,'CADOMIN8    ',  69.0000,1,  29,  99,  17,1.03873, -19.6091,1.10000,0.90000,1.10000,0.90000
   324,'COALSPU7    ', 138.0000,1,  29,  99,  17,1.02999, -19.5024,1.10000,0.90000,1.10000,0.90000
   325,'PEGAS.L8    ',  69.0000,1,  26,  99,  17,1.05233, -20.8947,1.10000,0.90000,1.10000,0.90000
   326,'COAL VA7    ', 138.0000,1,  29,  99,  17,1.02639, -19.6857,1.10000,0.90000,1.10000,0.90000
   328,'MACLEOD1    ', 138.0000,1,  53,  99,  19,1.03204, -11.4635,1.10000,0.90000,1.10000,0.90000
   329,'POCATER7    ', 138.0000,1,  44,  99,  17,1.02650, -22.0621,1.10000,0.90000,1.10000,0.90000
   330,'P C BRA7    ', 138.0000,1,  30,  99,  17,1.02610, -21.1503,1.10000,0.90000,1.10000,0.90000
   331,'VIOL GR7    ', 138.0000,1,  30,  99,  17,1.00920, -19.1042,1.10000,0.90000,1.10000,0.90000
   332,'DVPL IA9    ',  13.8000,2,  30,  99,   4,1.04763, -17.1642,1.10000,0.90000,1.10000,0.90000
   333,'QUENSTWN    ', 138.0000,1,  45,  99,  17,1.01436, -20.7206,1.10000,0.90000,1.10000,0.90000