0,   100.00, 33, 0, 1, 60.00     / PSS(R)E-33.4    THU, JUN 27 2013   0:36
TASMO MODEL; OUTPUT GENERATED 2012-09-11 17:26:40
SWINGBUS 1520 FOR 2012LPBL-1:2012-12-01:1:833--1-0-0-0
     1,'JUDY515S    ',  69.0000,1,  26,  99,  17,1.05325, -16.8513,1.10000,0.90000,1.10000,0.90000
     2,'MAYERTH     ', 138.0000,1,  40,  99,  17,1.01686, -14.8053,1.10000,0.90000,1.10000,0.90000
     3,'COLINTO7    ', 138.0000,1,  27,  99,  17,1.01111, -19.0726,1.10000,0.90000,1.10000,0.90000
     4,'WESTLOC7    ', 138.0000,1,  27,  99,  17,1.01010, -15.8898,1.10000,0.90000,1.10000,0.90000
     5,'CLYDE  7    ', 138.0000,1,  27,  99,  17,1.00612, -16.7579,1.10000,0.90000,1.10000,0.90000
     6,'DICKSOA9    ',   4.1600,1,  39,  99,   7,1.03266, -22.6144,1.10000,0.90000,1.10000,0.90000
     7,'BOYLE  7    ', 138.0000,1,  27,  99,  17,1.02409, -19.7547,1.10000,0.90000,1.10000,0.90000
     8,'WHI 3647    ', 138.0000,1,  26,  99,  17,1.02436, -15.1271,1.10000,0.90000,1.10000,0.90000
     9,'WHITECO7    ', 138.0000,1,  26,  99,  17,1.02582, -15.4243,1.10000,0.90000,1.10000,0.90000
    10,'WHITECO8    ',  69.0000,1,  26,  99,  17,1.05102, -14.5381,1.10000,0.90000,1.10000,0.90000
    11,'JUDY CR8    ',  69.0000,1,  26,  99,  17,1.05352, -16.8493,1.10000,0.90000,1.10000,0.90000
    12,'FOX CREE    ', 138.0000,1,  24,  99,  17,1.03080, -16.7074,1.10000,0.90000,1.10000,0.90000
    13,'KAYBOB 7    ', 138.0000,1,  24,  99,  17,1.01839, -16.3800,1.10000,0.90000,1.10000,0.90000
    14,'WESGEN 9    ',  13.8000,2,  27,  99,   4,1.02500, -12.2126,1.10000,0.90000,1.10000,0.90000
    15,'MTN COA7    ', 138.0000,1,  29,  99,  17,1.03598, -14.9561,1.10000,0.90000,1.10000,0.90000
    16,'FLATBUS7    ', 138.0000,1,  27,  99,  17,1.01667, -15.3480,1.10000,0.90000,1.10000,0.90000
    17,'COLD CR7    ', 138.0000,1,  29,  99,  17,1.04031, -15.4532,1.10000,0.90000,1.10000,0.90000
    18,'GULF RO7    ', 138.0000,1,  29,  99,  17,1.01948, -14.2393,1.10000,0.90000,1.10000,0.90000
    19,'WESGEN T    ', 138.0000,1,  27,  99,  17,1.01866, -15.2222,1.10000,0.90000,1.10000,0.90000
    20,'EDSON  7    ', 138.0000,1,  29,  99,  17,1.02573, -13.7612,1.10000,0.90000,1.10000,0.90000
    21,'WESGEN 7    ', 138.0000,1,  27,  99,   4,1.02169, -14.8863,1.10000,0.90000,1.10000,0.90000
    26,'ENTWIST7    ', 138.0000,1,  40,  99,  17,1.01379, -14.2319,1.10000,0.90000,1.10000,0.90000
    27,'WABAMUN8    ',  69.0000,1,  40,  99,  17,1.01675, -12.1905,1.10000,0.90000,1.10000,0.90000
    31,'FINCAST7    ', 138.0000,1,  52,  99,  17,1.01001, -22.5937,1.10000,0.90000,1.10000,0.90000
    32,'ONOWAY 8    ',  69.0000,1,  40,  99,  17,1.01733, -12.2194,1.10000,0.90000,1.10000,0.90000
    33,'BRAZEAA9    ',  13.2000,2,  30,  99,  17,1.01902, -15.7394,1.10000,0.90000,1.10000,0.90000
    35,'LODGEPO7    ', 138.0000,1,  30,  99,  17,1.01518, -15.1156,1.10000,0.90000,1.10000,0.90000
    36,'BRAZEAU7    ', 138.0000,1,  30,  99,  17,1.02492, -14.6547,1.10000,0.90000,1.10000,0.90000
    37,'HRT EXP7    ', 138.0000,1,  32,  99,  25,1.02495, -17.6375,1.10000,0.90000,1.10000,0.90000
    38,'BRAZ OUT    ', 138.0000,1,  30,  99,  17,1.02395, -15.2711,1.10000,0.90000,1.10000,0.90000
    39,'CYNTHIA7    ', 138.0000,1,  30,  99,  17,1.02361, -15.7795,1.10000,0.90000,1.10000,0.90000
    40,'N CALDE7    ', 138.0000,1,  60,  99,  17,1.00513, -16.0068,1.10000,0.90000,1.10000,0.90000
    41,'N BARRH7    ', 138.0000,1,  40,  99,  17,1.02636, -13.8574,1.10000,0.90000,1.10000,0.90000
    42,'AMOCO BR    ', 138.0000,1,  30,  99,  17,1.02638, -16.2551,1.10000,0.90000,1.10000,0.90000
    43,'SCOTF_4     ', 138.0000,2,  33,  99,  29,1.01152, -15.0345,1.10000,0.90000,1.10000,0.90000
    44,'FT ASBN7    ', 138.0000,1,  40,  99,  17,1.03097, -15.1000,1.10000,0.90000,1.10000,0.90000
    47,'SHERWOO7    ', 138.0000,1,  60,  99,  17,1.00565, -16.0460,1.10000,0.90000,1.10000,0.90000
    48,'DIAM SH7    ', 138.0000,1,  33,  99,  17,1.01199, -15.0006,1.10000,0.90000,1.10000,0.90000
    49,'KEYSTON7    ', 138.0000,1,  30,  99,  17,1.01855, -10.8082,1.10000,0.90000,1.10000,0.90000
    50,'RIVERSID    ', 138.0000,2,  33,  99, 211,1.01173, -15.1961,1.10000,0.90000,1.10000,0.90000
    51,'W PEMBI7    ', 138.0000,1,  30,  99,  17,1.02457, -16.2270,1.10000,0.90000,1.10000,0.90000
    52,'BLUERIDG    ', 138.0000,1,  26,  99,  17,1.01894, -15.1776,1.10000,0.90000,1.10000,0.90000
    53,'SANDYPT7    ', 138.0000,1,  48,  99,  17,1.02514, -16.8365,1.10000,0.90000,1.10000,0.90000
    55,'GULF OI7    ', 138.0000,1,  60,  99,  17,1.01389, -15.8659,1.10000,0.90000,1.10000,0.90000
    56,'IPPL ED7    ', 138.0000,1,  60,  99,  17,1.01471, -15.8317,1.10000,0.90000,1.10000,0.90000
    57,'LAMOURE4    ', 240.0000,1,  33,  99,  17,1.05238, -13.9688,1.10000,0.90000,1.10000,0.90000
    58,'FORT SA7    ', 138.0000,1,  60,  99,  17,1.01279, -15.1543,1.10000,0.90000,1.10000,0.90000
    59,'REDWATE7    ', 138.0000,1,  33,  99,  17,1.00358, -15.6308,1.10000,0.90000,1.10000,0.90000
    60,'BEAMER 7    ', 138.0000,1,  33,  99,  17,1.00801, -15.3115,1.10000,0.90000,1.10000,0.90000
    61,'UN CARB9    ', 138.0000,2,  33,  99, 191,1.01809, -14.9191,1.10000,0.90000,1.10000,0.90000
    62,'SHERRIT7    ', 138.0000,1,  33,  99,  17,1.01348, -15.1176,1.10000,0.90000,1.10000,0.90000
    63,'LAMOURE7    ', 138.0000,1,  33,  99,  17,1.01627, -14.9412,1.10000,0.90000,1.10000,0.90000
    64,'BANFF  7    ', 138.0000,1,  44,  99,  17,1.00449, -26.3661,1.10000,0.90000,1.10000,0.90000
    65,'BARDO  7    ', 138.0000,1,  31,  99,  17,0.98957, -16.9788,1.10000,0.90000,1.10000,0.90000
    66,'IOL 737L    ', 138.0000,1,  60,  99,  17,1.01309, -15.9092,1.10000,0.90000,1.10000,0.90000
    67,'BRUDERH7    ', 138.0000,1,  33,  99,  17,1.02147, -15.3998,1.10000,0.90000,1.10000,0.90000
    68,'N HOLDE7    ', 138.0000,1,  56,  99,  17,1.00217, -15.3187,1.10000,0.90000,1.10000,0.90000
    69,'IOL 738L    ', 138.0000,1,  60,  99,  17,1.00843, -16.2076,1.10000,0.90000,1.10000,0.90000
    70,'CAMROSE7    ', 138.0000,1,  31,  99,  17,0.97627, -18.3400,1.10000,0.90000,1.10000,0.90000
    71,'JARROW 8    ',  69.0000,1,  32,  99,  17,1.03075, -16.4820,1.10000,0.90000,1.10000,0.90000
    72,'JARROW 7    ', 138.0000,1,  32,  99,  17,1.01319, -16.4389,1.10000,0.90000,1.10000,0.90000
    73,'HARDIST7    ', 138.0000,1,  32,  99,  17,1.02507, -17.6725,1.10000,0.90000,1.10000,0.90000
    74,'METIS647    ', 138.0000,1,  37,  99,  17,1.03222, -15.0979,1.10000,0.90000,1.10000,0.90000
    75,'HUGHEND7    ', 138.0000,1,  37,  99,  17,1.02369, -16.5943,1.10000,0.90000,1.10000,0.90000
    76,'IPPL ST7    ', 138.0000,1,  56,  99,  17,1.05042,  -9.0525,1.10000,0.90000,1.10000,0.90000
    77,'WAINWRI8    ',  69.0000,1,  32,  99,  17,1.03141, -16.6015,1.10000,0.90000,1.10000,0.90000
    78,'SEDGEWI7    ', 138.0000,1,  32,  99,  17,1.02923, -13.4667,1.10000,0.90000,1.10000,0.90000
    79,'BUFFALO7    ', 138.0000,1,  32,  99,  17,1.00059, -19.1390,1.10000,0.90000,1.10000,0.90000
    80,'BUCKLAK7    ', 138.0000,1,  30,  99,  17,1.00995, -14.0653,1.10000,0.90000,1.10000,0.90000
    81,'BIGSTON4    ', 240.0000,1,  31,  99,  17,1.00292, -13.6433,1.10000,0.90000,1.10000,0.90000
    82,'CHEVRON7    ', 138.0000,1,  24,  99,  17,1.01814, -16.3887,1.10000,0.90000,1.10000,0.90000
    83,'RBCUPIL7    ', 138.0000,1,  17,  99,  21,1.07668, -10.2955,1.10000,0.90000,1.10000,0.90000
    85,'MILLAR 7    ', 138.0000,1,  26,  99,  17,1.00654, -15.6620,1.10000,0.90000,1.10000,0.90000
    86,'PROVOST7    ', 138.0000,1,  37,  99,  17,1.02072, -15.5529,1.10000,0.90000,1.10000,0.90000
    87,'METIS644    ', 240.0000,1,  37,  99,  17,1.05996, -11.6121,1.10000,0.90000,1.10000,0.90000
    88,'BICKERD7    ', 138.0000,1,  29,  99,  17,1.03199, -13.1947,1.10000,0.90000,1.10000,0.90000
    89,'E EDMON7    ', 138.0000,1,  60,  99,  17,1.01540, -15.7950,1.10000,0.90000,1.10000,0.90000
    90,'BICKERD4    ', 240.0000,1,  29,  99,  17,1.08340, -11.3447,1.10000,0.90000,1.10000,0.90000
    91,'NISKU  7    ', 138.0000,1,  60,  99,  17,0.98509, -18.6965,1.10000,0.90000,1.10000,0.90000
    93,'WETASKI7    ', 138.0000,1,  31,  99,  17,1.00414, -18.3041,1.10000,0.90000,1.10000,0.90000
    94,'ERVICK 7    ', 138.0000,1,  31,  99,  17,0.97950, -18.5052,1.10000,0.90000,1.10000,0.90000
    95,'PONOKA 7    ', 138.0000,1,  31,  99,  17,0.98733, -19.5634,1.10000,0.90000,1.10000,0.90000
    96,'DEVON  7    ', 138.0000,1,  60,  99,  17,0.97745, -18.6493,1.10000,0.90000,1.10000,0.90000
    97,'ECKVILL7    ', 138.0000,1,  35,  99,  17,1.01297, -18.7948,1.10000,0.90000,1.10000,0.90000
    98,'RIMBEY 7    ', 138.0000,1,  35,  99,  17,0.99726, -19.4135,1.10000,0.90000,1.10000,0.90000
    99,'BENALTO7    ', 138.0000,1,  35,  99,  17,1.02338, -18.3608,1.10000,0.90000,1.10000,0.90000
   100,'ROCKY M7    ', 138.0000,1,  38,  99,  17,0.99100, -19.8343,1.10000,0.90000,1.10000,0.90000
   101,'COOKING7    ', 138.0000,1,  60,  99,  17,0.99187, -16.8604,1.10000,0.90000,1.10000,0.90000
   102,'BIGHORN1    ',  13.8000,2,  34,  99,  17,0.97300, -12.5774,1.10000,0.90000,1.10000,0.90000
   103,'BIG HOR7    ', 138.0000,1,  34,  99,  17,0.99670, -13.3257,1.10000,0.90000,1.10000,0.90000
   104,'STRACHA7    ', 138.0000,1,  38,  99,  17,0.99505, -19.5909,1.10000,0.90000,1.10000,0.90000
   105,'PIGEON 7    ', 138.0000,1,  31,  99,  17,0.99860, -18.2796,1.10000,0.90000,1.10000,0.90000
   106,'DEERLAN7    ', 138.0000,1,  33,  99,  17,1.02025, -15.1796,1.10000,0.90000,1.10000,0.90000
   107,'SUNDRE 7    ', 138.0000,1,  38,  99,  17,0.96611, -22.8141,1.10000,0.90000,1.10000,0.90000
   108,'BIGHORN2    ',  13.8000,2,  34,  99,  17,0.97200,  -5.4225,1.10000,0.90000,1.10000,0.90000
   109,'DEERLAN4    ', 240.0000,1,  33,  99,  17,1.06477, -14.1209,1.10000,0.90000,1.10000,0.90000
   110,'IPL EDM7    ', 138.0000,1,  60,  99,  17,1.01470, -15.8322,1.10000,0.90000,1.10000,0.90000
   111,'SANDHIL7    ', 138.0000,1,  48,  99,  17,1.02511, -16.8544,1.10000,0.90000,1.10000,0.90000
   112,'SUNKEN7     ', 138.0000,1,  37,  99,  17,1.03206, -15.1190,1.10000,0.90000,1.10000,0.90000
   113,'BLACKFA7    ', 138.0000,1,  35,  99,  17,1.00244, -19.3121,1.10000,0.90000,1.10000,0.90000
   114,'LACOMBE7    ', 138.0000,1,  35,  99,  17,0.99252, -19.6261,1.10000,0.90000,1.10000,0.90000
   115,'S RED DE    ', 138.0000,1,  35,  99,  17,1.01463, -18.7530,1.10000,0.90000,1.10000,0.90000
   116,'W LACOMB    ', 138.0000,1,  35,  99,  17,0.99566, -19.5089,1.10000,0.90000,1.10000,0.90000
   117,'RED DE A    ', 138.0000,1,  35,  99,  17,1.01597, -18.5824,1.10000,0.90000,1.10000,0.90000
   118,'RED DE B    ', 138.0000,1,  35,  99,  17,1.01597, -18.5824,1.10000,0.90000,1.10000,0.90000
   119,'N RED D7    ', 138.0000,1,  35,  99,  17,1.01732, -18.7564,1.10000,0.90000,1.10000,0.90000
   120,'INNISFA7    ', 138.0000,1,  39,  99,  17,0.99253, -20.8822,1.10000,0.90000,1.10000,0.90000
   121,'OLDS   7    ', 138.0000,1,  39,  99,  17,0.97297, -23.2012,1.10000,0.90000,1.10000,0.90000
   122,'MADDEN 7    ', 138.0000,1,  39,  99,  17,0.97629, -24.9230,1.10000,0.90000,1.10000,0.90000
   123,'DIDSBURY    ', 138.0000,1,  39,  99,  17,0.97551, -23.8583,1.10000,0.90000,1.10000,0.90000
   124,'HARMATT7    ', 138.0000,1,  39,  99,  17,0.97370, -23.7369,1.10000,0.90000,1.10000,0.90000
   125,'YASAA7      ', 138.0000,1,  60,  99,  17,1.01428, -15.8459,1.10000,0.90000,1.10000,0.90000
   126,'SHELL H7    ', 138.0000,1,  39,  99,  17,0.97396, -23.8435,1.10000,0.90000,1.10000,0.90000
   127,'BEDDING2    ', 138.0000,1,   6,  99,   3,1.02884, -23.4522,1.10000,0.90000,1.10000,0.90000
   128,'ELLERSLI    ', 240.0000,1,  60,  99,  17,1.02693, -10.5771,1.10000,0.90000,1.10000,0.90000
   130,'SUND#3GN    ',  20.0000,2,  40,  99,  17,1.00000,   0.8615,1.10000,0.90000,1.10000,0.90000
   131,'SUNDANA8    ',  69.0000,1,  40,  99,  17,1.00662,  -9.9335,1.10000,0.90000,1.10000,0.90000
   132,'SUNDANC7    ', 138.0000,1,  40,  99,  17,1.03043,  -7.7244,1.10000,0.90000,1.10000,0.90000
   133,'WABAMUN4    ', 240.0000,1,  40,  99,  17,1.06417,  -9.4969,1.10000,0.90000,1.10000,0.90000
   134,'WABAMUN7    ', 138.0000,1,  40,  99,  17,1.02626, -12.6240,1.10000,0.90000,1.10000,0.90000
   135,'SUNDANC4    ', 240.0000,1,  40,  99,  17,1.08139,  -7.5371,1.10000,0.90000,1.10000,0.90000
   136,'E EDMON4    ', 240.0000,1,  60,  99,  17,1.02007, -11.7564,1.10000,0.90000,1.10000,0.90000
   137,'N CALDE4    ', 240.0000,1,  60,  99,  17,1.03421, -13.2215,1.10000,0.90000,1.10000,0.90000
   138,'N BARRH4    ', 240.0000,1,  40,  99,  17,1.09506, -11.5807,1.10000,0.90000,1.10000,0.90000
   141,'DALEHUR7    ', 138.0000,1,  29,  99,  17,1.03658, -14.9173,1.10000,0.90000,1.10000,0.90000
   142,'KINGMAN7    ', 138.0000,1,  31,  99,  17,0.98424, -17.4899,1.10000,0.90000,1.10000,0.90000
   144,'ALGAR  7    ', 138.0000,1,  61,  99,   1,1.06977,  -9.6715,1.10000,0.90000,1.10000,0.90000
   147,'GAETZ  4    ', 240.0000,1,  35,  99,  17,1.01167, -16.1789,1.10000,0.90000,1.10000,0.90000
   148,'GAETZ  7    ', 138.0000,1,  35,  99,  17,1.02510, -18.3918,1.10000,0.90000,1.10000,0.90000
   150,'WILLESD4    ', 240.0000,1,  30,  99,  17,1.06262, -13.8589,1.10000,0.90000,1.10000,0.90000
   151,'BRAZ#1 9    ',  13.8000,2,  30,  99,  17,0.98000,  -9.1985,1.10000,0.90000,1.10000,0.90000
   152,'RED DEE4    ', 240.0000,1,  35,  99,  17,1.03061, -16.0369,1.10000,0.90000,1.10000,0.90000
   153,'BRAZEAU4    ', 240.0000,1,  30,  99,  17,1.06612, -13.3800,1.10000,0.90000,1.10000,0.90000
   154,'BRAZ#2 9    ',  13.8000,2,  30,  99,  17,0.99490, -13.3800,1.10000,0.90000,1.10000,0.90000
   155,'BENALTO4    ', 240.0000,1,  35,  99,  17,1.05346, -14.4263,1.10000,0.90000,1.10000,0.90000
   156,'E CROSS4    ', 240.0000,1,  57,  99,  17,1.03238, -19.0697,1.10000,0.90000,1.10000,0.90000
   157,'COCHIN 8    ',  69.0000,1,  32,  99, 241,1.03122, -16.6059,1.10000,0.90000,1.10000,0.90000
   158,'LANGDON2    ', 500.0000,1,   6,  99,  17,1.05311, -16.5895,1.10000,0.90000,1.10000,0.90000
   159,'LANGDON4    ', 240.0000,1,   6,  99,  17,1.05400, -18.7375,1.10000,0.90000,1.10000,0.90000
   160,'JANET  4    ', 240.0000,1,   6,  99,  17,1.04792, -20.5894,1.10000,0.90000,1.10000,0.90000
   161,'SARCEE 4    ', 240.0000,1,   6,  99,  17,1.03156, -22.5215,1.10000,0.90000,1.10000,0.90000
   162,'E CALGAR    ', 240.0000,1,   6,  99,  17,1.03793, -22.0741,1.10000,0.90000,1.10000,0.90000
   163,'SAGITAW4    ', 240.0000,1,  26,  99,  17,1.07473, -13.1263,1.10000,0.90000,1.10000,0.90000
   164,'SAGITAW7    ', 138.0000,1,  26,  99,  17,1.02641, -14.7708,1.10000,0.90000,1.10000,0.90000
   165,'PEIGAN 4    ', 240.0000,1,  53,  99, 191,1.03033, -19.1506,1.10000,0.90000,1.10000,0.90000
   166,'PEIGAN 7    ', 138.0000,1,  53,  99, 191,1.02943, -18.1865,1.10000,0.90000,1.10000,0.90000
   167,'N LETHB4    ', 240.0000,1,  54,  99,  17,1.02609, -19.8061,1.10000,0.90000,1.10000,0.90000
   168,'SUNSHIN8    ',  69.0000,1,  44,  99,  17,1.00447, -34.7409,1.10000,0.90000,1.10000,0.90000
   169,'CAN CEM7    ', 138.0000,1,  44,  99,  17,1.01460, -25.7840,1.10000,0.90000,1.10000,0.90000
   170,'COCHRAN7    ', 138.0000,1,  44,  99,  17,0.99853, -27.0451,1.10000,0.90000,1.10000,0.90000
   171,'SEEBE  7    ', 138.0000,1,  44,  99, 191,1.01644, -25.4853,1.10000,0.90000,1.10000,0.90000
   172,'HORS GEN    ',  12.0000,2,  44,  99,  17,1.02500, -23.8374,1.10000,0.90000,1.10000,0.90000
   173,'BRETV A7    ', 138.0000,1,  60,  99,  17,1.01386, -15.8658,1.10000,0.90000,1.10000,0.90000
   174,'SPRAY G1    ',  13.2000,2,  44,  99,  17,1.04663, -21.1084,1.10000,0.90000,1.10000,0.90000
   175,'CASCADE7    ', 138.0000,1,  44,  99, 194,1.00839, -26.1837,1.10000,0.90000,1.10000,0.90000
   176,'CASCADE9    ',  13.2000,2,  44,  99, 194,1.02463, -25.0507,1.10000,0.90000,1.10000,0.90000
   177,'AIRDRIE     ', 138.0000,1,  57,  99,  17,1.01670, -21.1334,1.10000,0.90000,1.10000,0.90000
   178,'BANFF  8    ',  69.0000,1,  44,  99,  17,1.01156, -34.4155,1.10000,0.90000,1.10000,0.90000
   179,'MARIANA7    ', 138.0000,1,  61,  99,   1,1.07207, -10.1230,1.10000,0.90000,1.10000,0.90000
   180,'GHOST  7    ', 138.0000,1,  44,  99,  17,1.00777, -25.9744,1.10000,0.90000,1.10000,0.90000
   181,'GHOST A9    ',  13.2000,2,  44,  99,  17,0.99992, -23.8752,1.10000,0.90000,1.10000,0.90000
   183,'BEARSPWB    ',  13.2000,2,  44,  99,  17,1.03737, -26.9129,1.10000,0.90000,1.10000,0.90000
   184,'BEARSPAW    ', 138.0000,1,  44,  99,  17,1.00375, -26.9969,1.10000,0.90000,1.10000,0.90000
   187,'BEDDING1    ', 240.0000,1,   6,  99,   3,1.03225, -20.6246,1.10000,0.90000,1.10000,0.90000
   188,'ANG COCA    ',  25.0000,1,  44,  99,  17,1.04205, -29.1659,1.10000,0.90000,1.10000,0.90000
   189,'ANG COCB    ',  13.8000,2,  44,  99,  17,0.99838, -29.2013,1.10000,0.90000,1.10000,0.90000
   190,'SPRAY G2    ',  13.2000,2,  44,  99,  17,1.01874, -25.4954,1.10000,0.90000,1.10000,0.90000
   191,'ANG COCH    ', 138.0000,1,  44,  99,  17,0.99818, -26.9542,1.10000,0.90000,1.10000,0.90000
   192,'NELSON L    ', 138.0000,1,  31,  99,  17,0.98266, -19.7750,1.10000,0.90000,1.10000,0.90000
   193,'KANANAS7    ', 138.0000,1,  44,  99,  17,1.01689, -25.4620,1.10000,0.90000,1.10000,0.90000
   194,'LAKE LO8    ',  69.0000,1,  44,  99,  17,0.95572, -35.5386,1.10000,0.90000,1.10000,0.90000
   195,'RUNDLE S    ', 138.0000,1,  44,  99,  17,1.01795, -25.6029,1.10000,0.90000,1.10000,0.90000
   196,'KANANAS9    ',  12.0000,2,  44,  99,  17,1.03074, -23.9259,1.10000,0.90000,1.10000,0.90000
   197,'RUNDLE G    ',  13.8000,2,  44,  99,  17,1.04761, -22.9132,1.10000,0.90000,1.10000,0.90000
   198,'BALZAC 7    ', 138.0000,1,   6,  99,  17,1.02918, -23.2653,1.10000,0.90000,1.10000,0.90000
   199,'SHELL J7    ', 138.0000,1,  44,  99,  17,1.00709, -26.2134,1.10000,0.90000,1.10000,0.90000
   201,'JUMPPND7    ', 138.0000,1,  44,  99,  17,1.01273, -25.9617,1.10000,0.90000,1.10000,0.90000
   202,'SARCEE 7    ', 138.0000,1,   6,  99,  17,1.01683, -26.1142,1.10000,0.90000,1.10000,0.90000
   203,'SARCEE C    ',  13.8000,1,   6,  99,  17,0.99021, -26.2334,1.10000,0.90000,1.10000,0.90000
   204,'MCMILLA4    ', 240.0000,1,  61,  99,   1,1.11260,  -9.5216,1.10000,0.90000,1.10000,0.90000
   205,'AMOCO R7    ', 138.0000,1,  38,  99,  17,0.97042, -21.8650,1.10000,0.90000,1.10000,0.90000
   207,'JANET  7    ', 138.0000,1,   6,  99,  17,1.01636, -24.6667,1.10000,0.90000,1.10000,0.90000
   208,'ENMX2S 7    ', 138.0000,1,   6,  99,   3,1.00691, -26.4923,1.10000,0.90000,1.10000,0.90000
   209,'BRETONA1    ', 138.0000,1,  60,  99,  17,1.00303, -16.3362,1.10000,0.90000,1.10000,0.90000
   211,'MOUNT A7    ', 138.0000,1,  44,  99,  17,1.01900, -25.5159,1.10000,0.90000,1.10000,0.90000
   213,'HAIGRIVE    ', 138.0000,1,  17,  99,   1,1.09228, -13.8632,1.10000,0.90000,1.10000,0.90000
   214,'POCATEA9    ',  13.8000,2,  44,  99,  17,1.03415, -20.9875,1.10000,0.90000,1.10000,0.90000
   215,'TEX.W.P7    ', 138.0000,1,  30,  99,  17,1.02113, -15.6734,1.10000,0.90000,1.10000,0.90000
   216,'BARRIER7    ', 138.0000,1,  44,  99,  17,1.01860, -25.4581,1.10000,0.90000,1.10000,0.90000
   218,'BLACKMUD    ', 138.0000,1,  60,  99,  17,0.98033, -18.8132,1.10000,0.90000,1.10000,0.90000
   219,'KILLARN7    ', 138.0000,1,  37,  99,  17,1.00832, -18.9127,1.10000,0.90000,1.10000,0.90000
   220,'HAYTER 7    ', 138.0000,1,  37,  99,  17,0.99298, -19.5408,1.10000,0.90000,1.10000,0.90000
   221,'CRR-W1      ', 240.0000,1,  53,  99,  58,1.02690, -18.7725,1.10000,0.90000,1.10000,0.90000
   222,'BARRIER9    ',  13.2000,2,  44,  99,  17,1.03000, -22.1389,1.10000,0.90000,1.10000,0.90000
   223,'PINCHER8    ',  69.0000,1,  53,  99,  17,1.02835, -19.1544,1.10000,0.90000,1.10000,0.90000
   224,'PINCHER7    ', 138.0000,1,  53,  99,  17,1.03940, -18.5053,1.10000,0.90000,1.10000,0.90000
   225,'WARE JCT    ', 240.0000,1,  47,  99,  17,1.07102, -11.3353,1.10000,0.90000,1.10000,0.90000
   226,'DRYWOOD8    ',  69.0000,1,  55,  99,  17,1.01992, -20.4004,1.10000,0.90000,1.10000,0.90000
   227,'SHELL WA    ',  69.0000,1,  55,  99,  17,1.00779, -20.6218,1.10000,0.90000,1.10000,0.90000
   228,'YARROW 8    ',  69.0000,1,  55,  99,  17,1.01963, -20.4084,1.10000,0.90000,1.10000,0.90000
   229,'170AL-TA    ', 138.0000,1,  53,  99,  17,1.03357, -18.2794,1.10000,0.90000,1.10000,0.90000
   230,'OLDMAN D    ', 138.0000,1,  53,  99,   1,1.04216, -18.3339,1.10000,0.90000,1.10000,0.90000
   231,'N SHELL8    ',  69.0000,1,  55,  99,  17,1.00654, -20.6749,1.10000,0.90000,1.10000,0.90000
   232,'COLEMAN7    ', 138.0000,1,  53,  99,  17,1.02702, -18.0114,1.10000,0.90000,1.10000,0.90000
   233,'DRYWOOD7    ', 138.0000,1,  55,  99,  17,1.03025, -18.9247,1.10000,0.90000,1.10000,0.90000
   234,'CASTRIV1    ', 138.0000,1,  53,  99,  44,1.03859, -18.3974,1.10000,0.90000,1.10000,0.90000
   235,'STAVELY7    ', 138.0000,1,  49,  99,  17,0.99263, -24.0323,1.10000,0.90000,1.10000,0.90000
   236,'HIGH RI8    ',  69.0000,1,  46,  99,  17,1.02527, -27.8217,1.10000,0.90000,1.10000,0.90000
   237,'FORT MA7    ', 138.0000,1,  53,  99,  17,1.00247, -22.8473,1.10000,0.90000,1.10000,0.90000
   238,'BLACK D7    ', 138.0000,1,  46,  99,  17,0.96757, -26.9747,1.10000,0.90000,1.10000,0.90000
   239,'OKOTOKS7    ', 138.0000,1,  46,  99,  17,0.98330, -26.3731,1.10000,0.90000,1.10000,0.90000
   240,'MAGCAN 7    ', 138.0000,1,  46,  99,  17,0.98425, -26.5301,1.10000,0.90000,1.10000,0.90000
   241,'BLACK D8    ',  69.0000,1,  46,  99,  17,0.96954, -28.9810,1.10000,0.90000,1.10000,0.90000
   242,'HIGH RI7    ', 138.0000,1,  46,  99,  17,0.97754, -26.4854,1.10000,0.90000,1.10000,0.90000
   243,'HARTELL7    ', 138.0000,1,  46,  99,  17,0.96982, -26.8754,1.10000,0.90000,1.10000,0.90000
   244,'VULCAN 7    ', 138.0000,1,  49,  99,  17,0.99976, -24.0203,1.10000,0.90000,1.10000,0.90000
   245,'GLENWOO8    ',  69.0000,1,  55,  99, 191,1.00083, -21.8664,1.10000,0.90000,1.10000,0.90000
   246,'SPRING 8    ',  69.0000,1,  55,  99,  17,0.99420, -22.5879,1.10000,0.90000,1.10000,0.90000
   247,'CAVALIER    ', 138.0000,1,  45,  99,  42,1.04444, -20.9698,1.10000,0.90000,1.10000,0.90000
   248,'MAHKESES    ', 138.0000,2,  28,  99,  36,1.04000, -12.6508,1.10000,0.90000,1.10000,0.90000
   249,'878S        ', 138.0000,1,  19,  99,   1,1.08154, -21.2030,1.10000,0.90000,1.10000,0.90000
   250,'DUCHESS7    ', 138.0000,1,  47,  99,  17,1.00630, -17.5535,1.10000,0.90000,1.10000,0.90000
   251,'GARDN1      ', 138.0000,1,  55,  99,  10,1.00576, -22.4476,1.10000,0.90000,1.10000,0.90000
   252,'CARSELA7    ', 138.0000,1,  45,  99,  17,1.01395, -23.0704,1.10000,0.90000,1.10000,0.90000
   253,'BLACKIE7    ', 138.0000,1,  45,  99,  17,1.01067, -23.7582,1.10000,0.90000,1.10000,0.90000
   254,'GLEICHE7    ', 138.0000,1,  45,  99, 191,1.02763, -21.8398,1.10000,0.90000,1.10000,0.90000
   255,'CHINOOK9    ',  34.5000,2,  53,  99,  17,0.98856, -18.3800,1.10000,0.90000,1.10000,0.90000
   256,'BROOKS 7    ', 138.0000,1,  47,  99,  17,1.01338, -17.2211,1.10000,0.90000,1.10000,0.90000
   257,'LIMESTO7    ', 138.0000,1,  38,  99,  17,0.95748, -22.5180,1.10000,0.90000,1.10000,0.90000
   258,'ELLERSLI    ', 500.0000,1,  60,  99,  17,1.04234,  -4.0895,1.10000,0.90000,1.10000,0.90000
   259,'STRATHM7    ', 138.0000,1,  45,  99,  17,1.03462, -22.8987,1.10000,0.90000,1.10000,0.90000
   260,'JENNER 4    ', 240.0000,1,  48,  99,  17,1.07437, -13.7826,1.10000,0.90000,1.10000,0.90000
   262,'DOME EM4    ', 240.0000,1,  48,  99,  17,1.07856, -15.7172,1.10000,0.90000,1.10000,0.90000
   263,'EMP LIQ7    ', 138.0000,1,  48,  99,  17,1.02308, -17.1035,1.10000,0.90000,1.10000,0.90000
   264,'COWLEY 8    ',  69.0000,1,  53,  99,  17,1.03498, -18.7142,1.10000,0.90000,1.10000,0.90000
   265,'US WIND9    ',  34.5000,2,  53,  99,  17,0.98841, -18.5355,1.10000,0.90000,1.10000,0.90000
   266,'EMPRESA7    ', 138.0000,1,  48,  99,  17,1.02519, -16.8183,1.10000,0.90000,1.10000,0.90000
   267,'DOME EM7    ', 138.0000,1,  48,  99,  17,1.02531, -16.8289,1.10000,0.90000,1.10000,0.90000
   268,'DOME EA9    ',  13.8000,2,  48,  99,  17,1.03572, -17.3389,1.10000,0.90000,1.10000,0.90000
   269,'BURDETT7    ', 138.0000,1,  52,  99,  17,1.01816, -22.2562,1.10000,0.90000,1.10000,0.90000
   270,'SUFFIEL7    ', 138.0000,1,   4,  99,  17,1.00004, -19.0285,1.10000,0.90000,1.10000,0.90000
   271,'BULLS H7    ', 138.0000,1,   4,  99,  17,1.02117, -18.8866,1.10000,0.90000,1.10000,0.90000
   272,'TABER  7    ', 138.0000,1,  52,  99,  17,1.01027, -22.7207,1.10000,0.90000,1.10000,0.90000
   274,'VAUXHAL7    ', 138.0000,1,  52,  99,  17,1.00015, -20.8978,1.10000,0.90000,1.10000,0.90000
   275,'TILLEY 7    ', 138.0000,1,  47,  99,  17,1.01006, -18.5655,1.10000,0.90000,1.10000,0.90000
   276,'W BROOK7    ', 138.0000,1,  47,  99,  17,1.01753, -16.7141,1.10000,0.90000,1.10000,0.90000
   277,'WESTFLD7    ', 138.0000,1,  52,  99,  17,1.01669, -22.3418,1.10000,0.90000,1.10000,0.90000
   278,'WARNER 8    ',  69.0000,1,  55,  99,  17,0.97136, -24.6142,1.10000,0.90000,1.10000,0.90000
   279,'STAVELEY    ', 138.0000,1,  49,  99,  17,0.99701, -23.8333,1.10000,0.90000,1.10000,0.90000
   280,'STIRLIN8    ',  69.0000,1,  55,  99,  17,1.01874, -24.4442,1.10000,0.90000,1.10000,0.90000
   282,'HEARTLAK    ', 240.0000,1,  27,  99,   1,1.10949, -12.8472,1.10000,0.90000,1.10000,0.90000
   283,'CANMORE7    ', 138.0000,1,  44,  99,  17,1.01727, -25.8208,1.10000,0.90000,1.10000,0.90000
   284,'BUTTE7      ', 138.0000,1,   4,  99,  17,1.01818, -19.0162,1.10000,0.90000,1.10000,0.90000
   285,'BAYMAG      ', 138.0000,1,  44,  99,  17,1.01540, -25.7901,1.10000,0.90000,1.10000,0.90000
   286,'ENCHANT7    ', 138.0000,1,  52,  99,  17,0.99703, -19.8851,1.10000,0.90000,1.10000,0.90000
   287,'DOME EB9    ',  13.8000,2,  48,  99,  17,1.03238, -18.2134,1.10000,0.90000,1.10000,0.90000
   288,'DOME EC9    ',  13.8000,2,  48,  99,  17,1.03806, -16.8063,1.10000,0.90000,1.10000,0.90000
   289,'DOME EM9    ',  13.8000,2,  48,  99,  17,1.03647, -17.2615,1.10000,0.90000,1.10000,0.90000
   290,'BALZ COG    ', 138.0000,1,   6,  99,  42,1.03187, -23.0384,1.10000,0.90000,1.10000,0.90000
   291,'CONRAD 7    ', 138.0000,1,  52,  99,  17,1.00353, -22.7072,1.10000,0.90000,1.10000,0.90000
   292,'JENNER7     ', 138.0000,1,  48,  99,  17,1.01732, -17.7829,1.10000,0.90000,1.10000,0.90000
   293,'STIRLIN7    ', 138.0000,1,  55,  99,  17,0.98634, -23.1590,1.10000,0.90000,1.10000,0.90000
   295,'DRYCREEK    ', 138.0000,1,  57,  99,  17,1.02033, -22.4225,1.10000,0.90000,1.10000,0.90000
   296,'GOOSEL7     ', 138.0000,1,  53,  99,  17,1.03958, -18.5074,1.10000,0.90000,1.10000,0.90000
   297,'WAINWRI7    ', 138.0000,1,  32,  99,  17,0.99597, -17.8991,1.10000,0.90000,1.10000,0.90000
   298,'ALB NEWS    ', 240.0000,1,  26,  99,  17,1.06784, -13.6236,1.10000,0.90000,1.10000,0.90000
   299,'SUND866S    ',  69.0000,1,  40,  99,  17,1.00692, -10.7112,1.10000,0.90000,1.10000,0.90000
   300,'KEEP320P    ',  69.0000,1,  40,  99,  17,1.00895, -10.6504,1.10000,0.90000,1.10000,0.90000
   301,'KEEPHIL8    ',  69.0000,1,  40,  99,  17,1.00692, -10.7113,1.10000,0.90000,1.10000,0.90000
   302,'MARION 7    ', 138.0000,1,  40,  99,  17,1.02971,  -7.8343,1.10000,0.90000,1.10000,0.90000
   303,'STELCO 1    ', 138.0000,1,  60,  99,  17,1.01653, -15.8505,1.10000,0.90000,1.10000,0.90000
   304,'PLAMOND7    ', 138.0000,1,  27,  99,  17,1.02183, -19.3276,1.10000,0.90000,1.10000,0.90000
   305,'LAC LA 7    ', 138.0000,1,  27,  99,  17,1.01652, -18.3666,1.10000,0.90000,1.10000,0.90000
   306,'WINEFRE7    ', 138.0000,1,  27,  99,  17,1.05080, -16.3893,1.10000,0.90000,1.10000,0.90000
   308,'FLATLK-2    ', 138.0000,1,  27,  99,  17,1.03045, -19.6999,1.10000,0.90000,1.10000,0.90000
   309,'MCMILLA7    ', 138.0000,1,  61,  99,   1,1.08778,  -9.8422,1.10000,0.90000,1.10000,0.90000
   310,'SPRAY  S    ', 138.0000,1,  44,  99,  17,1.01874, -25.4954,1.10000,0.90000,1.10000,0.90000
   312,'E CROSS7    ', 138.0000,1,  57,  99,  17,1.04203, -19.7304,1.10000,0.90000,1.10000,0.90000
   313,'JOSEPH1     ', 240.0000,1,  33,  99,  17,1.05626, -14.2714,1.10000,0.90000,1.10000,0.90000
   314,'JOSEPH2     ', 138.0000,1,  33,  99,  17,1.01189, -14.9777,1.10000,0.90000,1.10000,0.90000
   315,'HUSSAR      ', 138.0000,1,  45,  99,  17,1.04159, -21.5310,1.10000,0.90000,1.10000,0.90000
   316,'LAURATP     ',  69.0000,1,  26,  99,  17,1.03985, -16.1876,1.10000,0.90000,1.10000,0.90000
   317,'CARSONA8    ',  69.0000,1,  26,  99,  17,1.03977, -16.1903,1.10000,0.90000,1.10000,0.90000
   318,'W CROSSF    ', 138.0000,1,  57,  99,  17,1.02950, -19.6192,1.10000,0.90000,1.10000,0.90000
   319,'COALSPU8    ',  69.0000,1,  29,  99,  17,1.01390, -14.3928,1.10000,0.90000,1.10000,0.90000
   320,'CHAPPIC7    ', 138.0000,1,   4,  99,  17,1.01968, -17.9464,1.10000,0.90000,1.10000,0.90000
   321,'HEARTLAK    ', 138.0000,1,  27,  99,   1,1.02716, -14.7836,1.10000,0.90000,1.10000,0.90000
   322,'CARSON 8    ',  69.0000,1,  26,  99,  17,1.03981, -16.0309,1.10000,0.90000,1.10000,0.90000
   323,'CADOMIN8    ',  69.0000,1,  29,  99,  17,1.01313, -14.4469,1.10000,0.90000,1.10000,0.90000
   324,'COALSPU7    ', 138.0000,1,  29,  99,  17,1.01806, -14.3530,1.10000,0.90000,1.10000,0.90000
   325,'PEGAS.L8    ',  69.0000,1,  26,  99,  17,1.03943, -16.1181,1.10000,0.90000,1.10000,0.90000
   326,'COAL VA7    ', 138.0000,1,  29,  99,  17,1.01407, -14.5537,1.10000,0.90000,1.10000,0.90000
   328,'MACLEOD1    ', 138.0000,1,  53,  99,  19,1.02671, -17.7733,1.10000,0.90000,1.10000,0.90000
   329,'POCATER7    ', 138.0000,1,  44,  99,  17,1.02001, -23.1157,1.10000,0.90000,1.10000,0.90000
   330,'P C BRA7    ', 138.0000,1,  30,  99,  17,1.02315, -16.0064,1.10000,0.90000,1.10000,0.90000
   331,'VIOL GR7    ', 138.0000,1,  30,  99,  17,1.00990, -14.4419,1.10000,0.90000,1.10000,0.90000
   332,'DVPL IA9    ',  13.8000,2,  30,  99,   4,1.04763, -12.8998,1.10000,0.90000,1.10000,0.90000
   333,'QUENSTWN    ', 138.0000,1,  45,  99,  17,1.01813, -21.9812,1.10000,0.90000,1.10000,0.90000