0,   100.00, 33, 0, 1, 60.00     / PSS(R)E-33.4    THU, JUN 27 2013   0:32
TASMO MODEL; OUTPUT GENERATED 2012-09-17 18:00:07
SWINGBUS 1520 FOR 2012LPBL-1:2013-09-01:1:803--1-0-0-0
     1,'JUDY515S    ',  69.0000,1,  26,  99,  17,1.03657, -18.8821,1.10000,0.90000,1.10000,0.90000
     2,'MAYERTH     ', 138.0000,1,  40,  99,  17,1.01974, -16.4867,1.10000,0.90000,1.10000,0.90000
     3,'COLINTO7    ', 138.0000,1,  27,  99,  17,1.00074, -20.6056,1.10000,0.90000,1.10000,0.90000
     4,'WESTLOC7    ', 138.0000,1,  27,  99,  17,1.00551, -17.7569,1.10000,0.90000,1.10000,0.90000
     5,'CLYDE  7    ', 138.0000,1,  27,  99,  17,1.00129, -18.5208,1.10000,0.90000,1.10000,0.90000
     6,'DICKSOA9    ',   4.1600,1,  39,  99,   7,1.03449, -22.3984,1.10000,0.90000,1.10000,0.90000
     7,'BOYLE  7    ', 138.0000,1,  27,  99,  17,1.00968, -21.2022,1.10000,0.90000,1.10000,0.90000
     8,'WHI 3647    ', 138.0000,1,  26,  99,  17,1.03043, -16.6580,1.10000,0.90000,1.10000,0.90000
     9,'WHITECO7    ', 138.0000,1,  26,  99,  17,1.03068, -16.8985,1.10000,0.90000,1.10000,0.90000
    10,'WHITECO8    ',  69.0000,1,  26,  99,  17,1.04935, -16.3642,1.10000,0.90000,1.10000,0.90000
    12,'FOX CREE    ', 138.0000,1,  24,  99,  17,1.03012, -18.4861,1.10000,0.90000,1.10000,0.90000
    13,'KAYBOB 7    ', 138.0000,1,  24,  99,  17,1.01434, -18.2613,1.10000,0.90000,1.10000,0.90000
    14,'WESGEN 9    ',  13.8000,2,  27,  99,   4,1.02500, -14.5263,1.10000,0.90000,1.10000,0.90000
    15,'MTN COA7    ', 138.0000,1,  29,  99,  17,1.00237, -16.6521,1.10000,0.90000,1.10000,0.90000
    16,'FLATBUS7    ', 138.0000,1,  27,  99,  17,1.01290, -17.3318,1.10000,0.90000,1.10000,0.90000
    17,'COLD CR7    ', 138.0000,1,  29,  99,  17,0.99765, -16.9353,1.10000,0.90000,1.10000,0.90000
    18,'GULF RO7    ', 138.0000,1,  29,  99,  17,1.01380, -16.1923,1.10000,0.90000,1.10000,0.90000
    19,'WESGEN T    ', 138.0000,1,  27,  99,  17,1.01478, -17.2101,1.10000,0.90000,1.10000,0.90000
    20,'EDSON  7    ', 138.0000,1,  29,  99,  17,1.02374, -15.8389,1.10000,0.90000,1.10000,0.90000
    21,'WESGEN 7    ', 138.0000,1,  27,  99,   4,1.01805, -16.9209,1.10000,0.90000,1.10000,0.90000
    26,'ENTWIST7    ', 138.0000,1,  40,  99,  17,1.01195, -16.0315,1.10000,0.90000,1.10000,0.90000
    27,'WABAMUN8    ',  69.0000,1,  40,  99,  17,1.02647, -13.9029,1.10000,0.90000,1.10000,0.90000
    31,'FINCAST7    ', 138.0000,1,  52,  99,  17,1.00659, -16.4788,1.10000,0.90000,1.10000,0.90000
    32,'ONOWAY 8    ',  69.0000,1,  40,  99,  17,1.02706, -13.9319,1.10000,0.90000,1.10000,0.90000
    33,'BRAZEAA9    ',  13.2000,2,  30,  99,  17,1.02093, -17.7570,1.10000,0.90000,1.10000,0.90000
    35,'LODGEPO7    ', 138.0000,1,  30,  99,  17,1.00447, -17.3972,1.10000,0.90000,1.10000,0.90000
    36,'BRAZEAU7    ', 138.0000,1,  30,  99,  17,1.02561, -16.9952,1.10000,0.90000,1.10000,0.90000
    37,'HRT EXP7    ', 138.0000,1,  32,  99,  25,1.02185, -10.8656,1.10000,0.90000,1.10000,0.90000
    38,'BRAZ OUT    ', 138.0000,1,  30,  99,  17,1.02204, -17.6505,1.10000,0.90000,1.10000,0.90000
    39,'CYNTHIA7    ', 138.0000,1,  30,  99,  17,1.00947, -18.3281,1.10000,0.90000,1.10000,0.90000
    40,'N CALDE7    ', 138.0000,1,  60,  99,  17,1.00321, -17.7515,1.10000,0.90000,1.10000,0.90000
    41,'N BARRH7    ', 138.0000,1,  40,  99,  17,1.01968, -15.8824,1.10000,0.90000,1.10000,0.90000
    42,'AMOCO BR    ', 138.0000,1,  30,  99,  17,1.01795, -18.7795,1.10000,0.90000,1.10000,0.90000
    43,'SCOTF_4     ', 138.0000,2,  33,  99,  29,1.03000, -16.9472,1.10000,0.90000,1.10000,0.90000
    44,'FT ASBN7    ', 138.0000,1,  40,  99,  17,1.02458, -17.1926,1.10000,0.90000,1.10000,0.90000
    47,'SHERWOO7    ', 138.0000,1,  60,  99,  17,1.01524, -17.7560,1.10000,0.90000,1.10000,0.90000
    48,'DIAM SH7    ', 138.0000,1,  33,  99,  17,1.03093, -16.9091,1.10000,0.90000,1.10000,0.90000
    49,'KEYSTON7    ', 138.0000,1,  30,  99,  17,1.01316, -12.5598,1.10000,0.90000,1.10000,0.90000
    50,'RIVERSID    ', 138.0000,2,  33,  99, 211,1.02771, -17.0488,1.10000,0.90000,1.10000,0.90000
    51,'W PEMBI7    ', 138.0000,1,  30,  99,  17,1.01347, -18.8234,1.10000,0.90000,1.10000,0.90000
    52,'BLUERIDG    ', 138.0000,1,  26,  99,  17,1.02410, -16.8184,1.10000,0.90000,1.10000,0.90000
    53,'SANDYPT7    ', 138.0000,1,  48,  99,  17,1.02687, -11.2806,1.10000,0.90000,1.10000,0.90000
    55,'GULF OI7    ', 138.0000,1,  60,  99,  17,1.02075, -17.5877,1.10000,0.90000,1.10000,0.90000
    56,'IPPL ED7    ', 138.0000,1,  60,  99,  17,1.02170, -17.5490,1.10000,0.90000,1.10000,0.90000
    57,'LAMOURE4    ', 240.0000,1,  33,  99,  17,1.02560, -15.7561,1.10000,0.90000,1.10000,0.90000
    58,'FORT SA7    ', 138.0000,1,  60,  99,  17,1.02643, -17.0107,1.10000,0.90000,1.10000,0.90000
    59,'REDWATE7    ', 138.0000,1,  33,  99,  17,1.01597, -17.4849,1.10000,0.90000,1.10000,0.90000
    60,'BEAMER 7    ', 138.0000,1,  33,  99,  17,1.02447, -17.1860,1.10000,0.90000,1.10000,0.90000
    61,'UN CARB9    ', 138.0000,2,  33,  99, 191,1.03000, -16.7837,1.10000,0.90000,1.10000,0.90000
    62,'SHERRIT7    ', 138.0000,1,  33,  99,  17,1.02720, -16.9783,1.10000,0.90000,1.10000,0.90000
    63,'LAMOURE7    ', 138.0000,1,  33,  99,  17,1.03028, -16.8057,1.10000,0.90000,1.10000,0.90000
    64,'BANFF  7    ', 138.0000,1,  44,  99,  17,1.00122, -25.5787,1.10000,0.90000,1.10000,0.90000
    65,'BARDO  7    ', 138.0000,1,  31,  99,  17,0.98874, -18.4726,1.10000,0.90000,1.10000,0.90000
    66,'IOL 737L    ', 138.0000,1,  60,  99,  17,1.02022, -17.6190,1.10000,0.90000,1.10000,0.90000
    67,'BRUDERH7    ', 138.0000,1,  33,  99,  17,1.03077, -17.1402,1.10000,0.90000,1.10000,0.90000
    68,'N HOLDE7    ', 138.0000,1,  56,  99,  17,0.99432, -16.7336,1.10000,0.90000,1.10000,0.90000
    69,'IOL 738L    ', 138.0000,1,  60,  99,  17,1.01554, -17.9142,1.10000,0.90000,1.10000,0.90000
    70,'CAMROSE7    ', 138.0000,1,  31,  99,  17,0.97616, -19.8358,1.10000,0.90000,1.10000,0.90000
    71,'JARROW 8    ',  69.0000,1,  32,  99,  17,1.02254, -12.4556,1.10000,0.90000,1.10000,0.90000
    72,'JARROW 7    ', 138.0000,1,  32,  99,  17,1.00502, -12.4232,1.10000,0.90000,1.10000,0.90000
    73,'HARDIST7    ', 138.0000,1,  32,  99,  17,1.02203, -10.8250,1.10000,0.90000,1.10000,0.90000
    74,'METIS647    ', 138.0000,1,  37,  99,  17,1.02751, -12.2111,1.10000,0.90000,1.10000,0.90000
    75,'HUGHEND7    ', 138.0000,1,  37,  99,  17,1.01929, -11.7961,1.10000,0.90000,1.10000,0.90000
    76,'IPPL ST7    ', 138.0000,1,  56,  99,  17,1.02384, -11.3505,1.10000,0.90000,1.10000,0.90000
    77,'WAINWRI8    ',  69.0000,1,  32,  99,  17,1.02350, -12.5708,1.10000,0.90000,1.10000,0.90000
    78,'SEDGEWI7    ', 138.0000,1,  32,  99,  17,1.02742,  -8.8650,1.10000,0.90000,1.10000,0.90000
    79,'BUFFALO7    ', 138.0000,1,  32,  99,  17,0.99051, -16.3358,1.10000,0.90000,1.10000,0.90000
    80,'BUCKLAK7    ', 138.0000,1,  30,  99,  17,0.99458, -16.0230,1.10000,0.90000,1.10000,0.90000
    81,'BIGSTON4    ', 240.0000,1,  31,  99,  17,0.99740, -14.9366,1.10000,0.90000,1.10000,0.90000
    82,'CHEVRON7    ', 138.0000,1,  24,  99,  17,1.01406, -18.2712,1.10000,0.90000,1.10000,0.90000
    83,'RBCUPIL7    ', 138.0000,1,  17,  99,  21,1.08687, -14.7871,1.10000,0.90000,1.10000,0.90000
    85,'MILLAR 7    ', 138.0000,1,  26,  99,  17,1.01297, -17.2359,1.10000,0.90000,1.10000,0.90000
    86,'PROVOST7    ', 138.0000,1,  37,  99,  17,1.01570, -12.6704,1.10000,0.90000,1.10000,0.90000
    87,'METIS644    ', 240.0000,1,  37,  99,  17,1.05995, -10.2438,1.10000,0.90000,1.10000,0.90000
    88,'BICKERD7    ', 138.0000,1,  29,  99,  17,1.02627, -15.1449,1.10000,0.90000,1.10000,0.90000
    89,'E EDMON7    ', 138.0000,1,  60,  99,  17,1.02249, -17.5074,1.10000,0.90000,1.10000,0.90000
    90,'BICKERD4    ', 240.0000,1,  29,  99,  17,1.08019, -13.2157,1.10000,0.90000,1.10000,0.90000
    91,'NISKU  7    ', 138.0000,1,  60,  99,  17,0.98423, -20.5309,1.10000,0.90000,1.10000,0.90000
    93,'WETASKI7    ', 138.0000,1,  31,  99,  17,1.00607, -19.7640,1.10000,0.90000,1.10000,0.90000
    94,'ERVICK 7    ', 138.0000,1,  31,  99,  17,0.98022, -19.9794,1.10000,0.90000,1.10000,0.90000
    95,'PONOKA 7    ', 138.0000,1,  31,  99,  17,0.99046, -20.4414,1.10000,0.90000,1.10000,0.90000
    96,'DEVON  7    ', 138.0000,1,  60,  99,  17,0.97090, -20.6892,1.10000,0.90000,1.10000,0.90000
    97,'ECKVILL7    ', 138.0000,1,  35,  99,  17,1.00827, -17.8601,1.10000,0.90000,1.10000,0.90000
    98,'RIMBEY 7    ', 138.0000,1,  35,  99,  17,0.99554, -18.4574,1.10000,0.90000,1.10000,0.90000
    99,'BENALTO7    ', 138.0000,1,  35,  99,  17,1.01777, -17.4301,1.10000,0.90000,1.10000,0.90000
   100,'ROCKY M7    ', 138.0000,1,  38,  99,  17,0.98478, -19.2948,1.10000,0.90000,1.10000,0.90000
   101,'COOKING7    ', 138.0000,1,  60,  99,  17,0.99550, -18.4143,1.10000,0.90000,1.10000,0.90000
   102,'BIGHORN1    ',  13.8000,2,  34,  99,  17,0.97558, -13.9202,1.10000,0.90000,1.10000,0.90000
   103,'BIG HOR7    ', 138.0000,1,  34,  99,  17,0.99510, -13.9202,1.10000,0.90000,1.10000,0.90000
   104,'STRACHA7    ', 138.0000,1,  38,  99,  17,0.98892, -19.3394,1.10000,0.90000,1.10000,0.90000
   105,'PIGEON 7    ', 138.0000,1,  31,  99,  17,0.99545, -20.1480,1.10000,0.90000,1.10000,0.90000
   106,'DEERLAN7    ', 138.0000,1,  33,  99,  17,1.02511, -16.8993,1.10000,0.90000,1.10000,0.90000
   107,'SUNDRE 7    ', 138.0000,1,  38,  99,  17,0.95909, -22.2662,1.10000,0.90000,1.10000,0.90000
   108,'BIGHORN2    ',  13.8000,2,  34,  99,  17,0.97200,  -6.4405,1.10000,0.90000,1.10000,0.90000
   109,'DEERLAN4    ', 240.0000,1,  33,  99,  17,1.04029, -15.9861,1.10000,0.90000,1.10000,0.90000
   110,'IPL EDM7    ', 138.0000,1,  60,  99,  17,1.02169, -17.5496,1.10000,0.90000,1.10000,0.90000
   111,'SANDHIL7    ', 138.0000,1,  48,  99,  17,1.02687, -11.2948,1.10000,0.90000,1.10000,0.90000
   112,'SUNKEN7     ', 138.0000,1,  37,  99,  17,1.02737, -12.2095,1.10000,0.90000,1.10000,0.90000
   113,'BLACKFA7    ', 138.0000,1,  35,  99,  17,1.00349, -19.6865,1.10000,0.90000,1.10000,0.90000
   114,'LACOMBE7    ', 138.0000,1,  35,  99,  17,0.99479, -20.1440,1.10000,0.90000,1.10000,0.90000
   115,'S RED DE    ', 138.0000,1,  35,  99,  17,1.01624, -18.8777,1.10000,0.90000,1.10000,0.90000
   116,'W LACOMB    ', 138.0000,1,  35,  99,  17,0.99767, -20.0352,1.10000,0.90000,1.10000,0.90000
   117,'RED DE A    ', 138.0000,1,  35,  99,  17,1.01805, -18.6466,1.10000,0.90000,1.10000,0.90000
   118,'RED DE B    ', 138.0000,1,  35,  99,  17,1.01805, -18.6466,1.10000,0.90000,1.10000,0.90000
   119,'N RED D7    ', 138.0000,1,  35,  99,  17,1.01787, -18.9714,1.10000,0.90000,1.10000,0.90000
   120,'INNISFA7    ', 138.0000,1,  39,  99,  17,0.99323, -20.7671,1.10000,0.90000,1.10000,0.90000
   121,'OLDS   7    ', 138.0000,1,  39,  99,  17,0.97068, -22.8549,1.10000,0.90000,1.10000,0.90000
   122,'MADDEN 7    ', 138.0000,1,  39,  99,  17,0.97130, -24.3502,1.10000,0.90000,1.10000,0.90000
   123,'DIDSBURY    ', 138.0000,1,  39,  99,  17,0.97139, -23.3997,1.10000,0.90000,1.10000,0.90000
   124,'HARMATT7    ', 138.0000,1,  39,  99,  17,0.96829, -23.2586,1.10000,0.90000,1.10000,0.90000
   125,'YASAA7      ', 138.0000,1,  60,  99,  17,1.02122, -17.5644,1.10000,0.90000,1.10000,0.90000
   126,'SHELL H7    ', 138.0000,1,  39,  99,  17,0.96924, -23.3773,1.10000,0.90000,1.10000,0.90000
   127,'BEDDING2    ', 138.0000,1,   6,  99,   3,1.02289, -22.7166,1.10000,0.90000,1.10000,0.90000
   128,'ELLERSLI    ', 240.0000,1,  60,  99,  17,1.01956, -12.2959,1.10000,0.90000,1.10000,0.90000
   129,'SUND#1GN    ',  18.0000,2,  40,  99,  17,1.00550,  -3.4966,1.10000,0.90000,1.10000,0.90000
   130,'SUND#3GN    ',  20.0000,2,  40,  99,  17,1.03000,  -2.1003,1.10000,0.90000,1.10000,0.90000
   131,'SUNDANA8    ',  69.0000,1,  40,  99,  17,1.02304, -11.8406,1.10000,0.90000,1.10000,0.90000
   132,'SUNDANC7    ', 138.0000,1,  40,  99,  17,1.03725,  -9.5064,1.10000,0.90000,1.10000,0.90000
   133,'WABAMUN4    ', 240.0000,1,  40,  99,  17,1.06375, -11.2800,1.10000,0.90000,1.10000,0.90000
   134,'WABAMUN7    ', 138.0000,1,  40,  99,  17,1.03052, -14.4256,1.10000,0.90000,1.10000,0.90000
   135,'SUNDANC4    ', 240.0000,1,  40,  99,  17,1.08431,  -9.3350,1.10000,0.90000,1.10000,0.90000
   136,'E EDMON4    ', 240.0000,1,  60,  99,  17,1.01089, -13.4010,1.10000,0.90000,1.10000,0.90000
   137,'N CALDE4    ', 240.0000,1,  60,  99,  17,1.02627, -14.9601,1.10000,0.90000,1.10000,0.90000
   138,'N BARRH4    ', 240.0000,1,  40,  99,  17,1.09306, -13.6553,1.10000,0.90000,1.10000,0.90000
   141,'DALEHUR7    ', 138.0000,1,  29,  99,  17,1.00344, -16.5843,1.10000,0.90000,1.10000,0.90000
   142,'KINGMAN7    ', 138.0000,1,  31,  99,  17,0.98385, -18.9759,1.10000,0.90000,1.10000,0.90000
   144,'ALGAR  7    ', 138.0000,1,  61,  99,   1,1.05305, -12.9890,1.10000,0.90000,1.10000,0.90000
   147,'GAETZ  4    ', 240.0000,1,  35,  99,  17,1.01265, -16.5523,1.10000,0.90000,1.10000,0.90000
   148,'GAETZ  7    ', 138.0000,1,  35,  99,  17,1.02466, -18.6399,1.10000,0.90000,1.10000,0.90000
   150,'WILLESD4    ', 240.0000,1,  30,  99,  17,1.04579, -15.3947,1.10000,0.90000,1.10000,0.90000
   151,'BRAZ#1 9    ',  13.8000,2,  30,  99,  17,0.98000, -12.9807,1.10000,0.90000,1.10000,0.90000
   152,'RED DEE4    ', 240.0000,1,  35,  99,  17,1.02907, -16.2333,1.10000,0.90000,1.10000,0.90000
   153,'BRAZEAU4    ', 240.0000,1,  30,  99,  17,1.04071, -15.3848,1.10000,0.90000,1.10000,0.90000
   154,'BRAZ#2 9    ',  13.8000,2,  30,  99,  17,0.97119, -15.3848,1.10000,0.90000,1.10000,0.90000
   155,'BENALTO4    ', 240.0000,1,  35,  99,  17,1.05246, -15.1053,1.10000,0.90000,1.10000,0.90000
   156,'E CROSS4    ', 240.0000,1,  57,  99,  17,1.03896, -18.7885,1.10000,0.90000,1.10000,0.90000
   157,'COCHIN 8    ',  69.0000,1,  32,  99, 241,1.02337, -12.5743,1.10000,0.90000,1.10000,0.90000
   158,'LANGDON2    ', 500.0000,1,   6,  99,  17,1.05371, -15.4458,1.10000,0.90000,1.10000,0.90000
   159,'LANGDON4    ', 240.0000,1,   6,  99,  17,1.05400, -17.4383,1.10000,0.90000,1.10000,0.90000
   160,'JANET  4    ', 240.0000,1,   6,  99,  17,1.04611, -19.6923,1.10000,0.90000,1.10000,0.90000
   161,'SARCEE 4    ', 240.0000,1,   6,  99,  17,1.03133, -21.6859,1.10000,0.90000,1.10000,0.90000
   162,'E CALGAR    ', 240.0000,1,   6,  99,  17,1.03442, -21.1221,1.10000,0.90000,1.10000,0.90000
   163,'SAGITAW4    ', 240.0000,1,  26,  99,  17,1.06640, -14.8037,1.10000,0.90000,1.10000,0.90000
   164,'SAGITAW7    ', 138.0000,1,  26,  99,  17,1.03238, -16.3806,1.10000,0.90000,1.10000,0.90000
   165,'PEIGAN 4    ', 240.0000,1,  53,  99, 191,1.02610, -12.4878,1.10000,0.90000,1.10000,0.90000
   166,'PEIGAN 7    ', 138.0000,1,  53,  99, 191,1.01570,  -9.6411,1.10000,0.90000,1.10000,0.90000
   167,'N LETHB4    ', 240.0000,1,  54,  99,  17,1.02960, -13.1975,1.10000,0.90000,1.10000,0.90000
   168,'SUNSHIN8    ',  69.0000,1,  44,  99,  17,0.98088, -34.7774,1.10000,0.90000,1.10000,0.90000
   169,'CAN CEM7    ', 138.0000,1,  44,  99,  17,1.00897, -25.0499,1.10000,0.90000,1.10000,0.90000
   170,'COCHRAN7    ', 138.0000,1,  44,  99,  17,0.99407, -26.0007,1.10000,0.90000,1.10000,0.90000
   171,'SEEBE  7    ', 138.0000,1,  44,  99, 191,1.01079, -24.6462,1.10000,0.90000,1.10000,0.90000
   172,'HORS GEN    ',  12.0000,2,  44,  99,  17,1.02500, -23.0532,1.10000,0.90000,1.10000,0.90000
   173,'BRETV A7    ', 138.0000,1,  60,  99,  17,1.02074, -17.5866,1.10000,0.90000,1.10000,0.90000
   174,'SPRAY G1    ',  13.2000,2,  44,  99,  17,1.04663, -20.3092,1.10000,0.90000,1.10000,0.90000
   175,'CASCADE7    ', 138.0000,1,  44,  99, 194,1.00518, -25.3974,1.10000,0.90000,1.10000,0.90000
   176,'CASCADE9    ',  13.2000,2,  44,  99, 194,1.02159, -23.9391,1.10000,0.90000,1.10000,0.90000
   177,'AIRDRIE     ', 138.0000,1,  57,  99,  17,1.01220, -21.6063,1.10000,0.90000,1.10000,0.90000
   178,'BANFF  8    ',  69.0000,1,  44,  99,  17,0.98877, -34.4149,1.10000,0.90000,1.10000,0.90000
   179,'MARIANA7    ', 138.0000,1,  61,  99,   1,1.05715, -13.0360,1.10000,0.90000,1.10000,0.90000
   180,'GHOST  7    ', 138.0000,1,  44,  99,  17,1.00109, -25.1338,1.10000,0.90000,1.10000,0.90000
   181,'GHOST A9    ',  13.2000,2,  44,  99,  17,1.00000, -23.1116,1.10000,0.90000,1.10000,0.90000
   183,'BEARSPWB    ',  13.2000,2,  44,  99,  17,1.03555, -25.7308,1.10000,0.90000,1.10000,0.90000
   184,'BEARSPAW    ', 138.0000,1,  44,  99,  17,1.00198, -25.7785,1.10000,0.90000,1.10000,0.90000
   187,'BEDDING1    ', 240.0000,1,   6,  99,   3,1.03719, -19.8978,1.10000,0.90000,1.10000,0.90000
   188,'ANG COCA    ',  25.0000,1,  44,  99,  17,1.03622, -28.2180,1.10000,0.90000,1.10000,0.90000
   189,'ANG COCB    ',  13.8000,2,  44,  99,  17,1.00313, -28.5333,1.10000,0.90000,1.10000,0.90000
   190,'SPRAY G2    ',  13.2000,2,  44,  99,  17,1.01610, -24.7904,1.10000,0.90000,1.10000,0.90000
   191,'ANG COCH    ', 138.0000,1,  44,  99,  17,0.99261, -26.0051,1.10000,0.90000,1.10000,0.90000
   192,'NELSON L    ', 138.0000,1,  31,  99,  17,0.98586, -20.6500,1.10000,0.90000,1.10000,0.90000
   193,'KANANAS7    ', 138.0000,1,  44,  99,  17,1.01127, -24.6184,1.10000,0.90000,1.10000,0.90000
   194,'LAKE LO8    ',  69.0000,1,  44,  99,  17,0.92896, -35.6331,1.10000,0.90000,1.10000,0.90000
   195,'RUNDLE S    ', 138.0000,1,  44,  99,  17,1.01496, -24.8904,1.10000,0.90000,1.10000,0.90000
   196,'KANANAS9    ',  12.0000,2,  44,  99,  17,1.02529, -22.8378,1.10000,0.90000,1.10000,0.90000
   197,'RUNDLE G    ',  13.8000,2,  44,  99,  17,1.04761, -22.6535,1.10000,0.90000,1.10000,0.90000
   198,'BALZAC 7    ', 138.0000,1,   6,  99,  17,1.02256, -22.6421,1.10000,0.90000,1.10000,0.90000
   199,'SHELL J7    ', 138.0000,1,  44,  99,  17,1.00099, -25.2957,1.10000,0.90000,1.10000,0.90000
   201,'JUMPPND7    ', 138.0000,1,  44,  99,  17,1.00779, -24.9963,1.10000,0.90000,1.10000,0.90000
   202,'SARCEE 7    ', 138.0000,1,   6,  99,  17,1.01371, -24.9059,1.10000,0.90000,1.10000,0.90000
   203,'SARCEE C    ',  13.8000,1,   6,  99,  17,1.01255, -25.0099,1.10000,0.90000,1.10000,0.90000
   204,'MCMILLA4    ', 240.0000,1,  61,  99,   1,1.10023, -11.6583,1.10000,0.90000,1.10000,0.90000
   205,'AMOCO R7    ', 138.0000,1,  38,  99,  17,0.96342, -21.3996,1.10000,0.90000,1.10000,0.90000
   207,'JANET  7    ', 138.0000,1,   6,  99,  17,1.01645, -23.0483,1.10000,0.90000,1.10000,0.90000
   208,'ENMX2S 7    ', 138.0000,1,   6,  99,   3,1.00735, -25.0797,1.10000,0.90000,1.10000,0.90000
   209,'BRETONA1    ', 138.0000,1,  60,  99,  17,1.00950, -17.9764,1.10000,0.90000,1.10000,0.90000
   210,'SJPC_TP     ', 138.0000,1,  44,  99,  17,1.00120, -25.2869,1.10000,0.90000,1.10000,0.90000
   211,'MOUNT A7    ', 138.0000,1,  44,  99,  17,1.01390, -24.7989,1.10000,0.90000,1.10000,0.90000
   213,'HAIGRIVE    ', 138.0000,1,  17,  99,   1,1.09989, -17.8866,1.10000,0.90000,1.10000,0.90000
   214,'POCATEA9    ',  13.8000,2,  44,  99,  17,0.99185, -20.1802,1.10000,0.90000,1.10000,0.90000
   215,'TEX.W.P7    ', 138.0000,1,  30,  99,  17,1.00696, -18.1974,1.10000,0.90000,1.10000,0.90000
   216,'BARRIER7    ', 138.0000,1,  44,  99,  17,1.01279, -24.6898,1.10000,0.90000,1.10000,0.90000
   217,'SJP_CRK     ', 138.0000,1,  44,  99,  17,1.00115, -25.2887,1.10000,0.90000,1.10000,0.90000
   218,'BLACKMUD    ', 138.0000,1,  60,  99,  17,0.97744, -20.7217,1.10000,0.90000,1.10000,0.90000
   219,'KILLARN7    ', 138.0000,1,  37,  99,  17,0.99990, -16.3267,1.10000,0.90000,1.10000,0.90000
   220,'HAYTER 7    ', 138.0000,1,  37,  99,  17,0.98375, -16.9855,1.10000,0.90000,1.10000,0.90000
   221,'CRR-W1      ', 240.0000,1,  53,  99,  58,1.02062, -11.7970,1.10000,0.90000,1.10000,0.90000
   222,'BARRIER9    ',  13.2000,2,  44,  99,  17,1.03000, -22.8935,1.10000,0.90000,1.10000,0.90000
   223,'PINCHER8    ',  69.0000,1,  53,  99,  17,1.01987, -10.6807,1.10000,0.90000,1.10000,0.90000
   224,'PINCHER7    ', 138.0000,1,  53,  99,  17,1.02909, -10.4954,1.10000,0.90000,1.10000,0.90000
   225,'WARE JCT    ', 240.0000,1,  47,  99,  17,1.06913,  -8.5469,1.10000,0.90000,1.10000,0.90000
   226,'DRYWOOD8    ',  69.0000,1,  55,  99,  17,1.01279, -12.3594,1.10000,0.90000,1.10000,0.90000
   227,'SHELL WA    ',  69.0000,1,  55,  99,  17,1.00125, -12.3878,1.10000,0.90000,1.10000,0.90000
   228,'YARROW 8    ',  69.0000,1,  55,  99,  17,1.01257, -12.3657,1.10000,0.90000,1.10000,0.90000
   229,'170AL-TA    ', 138.0000,1,  53,  99,  17,1.03078, -11.8706,1.10000,0.90000,1.10000,0.90000
   230,'OLDMAN D    ', 138.0000,1,  53,  99,   1,1.03363,  -9.8347,1.10000,0.90000,1.10000,0.90000
   231,'N SHELL8    ',  69.0000,1,  55,  99,  17,1.00021, -12.4324,1.10000,0.90000,1.10000,0.90000
   232,'COLEMAN7    ', 138.0000,1,  53,  99,  17,1.02440, -13.4018,1.10000,0.90000,1.10000,0.90000
   233,'DRYWOOD7    ', 138.0000,1,  55,  99,  17,1.02086, -10.9126,1.10000,0.90000,1.10000,0.90000
   234,'CASTRIV1    ', 138.0000,1,  53,  99,  44,1.02870, -10.6073,1.10000,0.90000,1.10000,0.90000
   235,'STAVELY7    ', 138.0000,1,  49,  99,  17,0.99031, -19.0927,1.10000,0.90000,1.10000,0.90000
   236,'HIGH RI8    ',  69.0000,1,  46,  99,  17,1.02583, -25.6059,1.10000,0.90000,1.10000,0.90000
   237,'FORT MA7    ', 138.0000,1,  53,  99,  17,0.99884, -16.3296,1.10000,0.90000,1.10000,0.90000
   238,'BLACK D7    ', 138.0000,1,  46,  99,  17,0.96734, -24.8656,1.10000,0.90000,1.10000,0.90000
   239,'OKOTOKS7    ', 138.0000,1,  46,  99,  17,0.98221, -24.4638,1.10000,0.90000,1.10000,0.90000
   240,'MAGCAN 7    ', 138.0000,1,  46,  99,  17,0.98291, -24.5475,1.10000,0.90000,1.10000,0.90000
   241,'BLACK D8    ',  69.0000,1,  46,  99,  17,0.97731, -26.6405,1.10000,0.90000,1.10000,0.90000
   242,'HIGH RI7    ', 138.0000,1,  46,  99,  17,0.97595, -24.4287,1.10000,0.90000,1.10000,0.90000
   243,'HARTELL7    ', 138.0000,1,  46,  99,  17,0.96931, -24.7772,1.10000,0.90000,1.10000,0.90000
   244,'VULCAN 7    ', 138.0000,1,  49,  99,  17,0.99570, -20.2792,1.10000,0.90000,1.10000,0.90000
   245,'GLENWOO8    ',  69.0000,1,  55,  99, 191,0.99638, -14.2129,1.10000,0.90000,1.10000,0.90000
   246,'SPRING 8    ',  69.0000,1,  55,  99,  17,0.99384, -15.1918,1.10000,0.90000,1.10000,0.90000
   247,'CAVALIER    ', 138.0000,1,  45,  99,  42,1.03329, -19.7553,1.10000,0.90000,1.10000,0.90000
   248,'MAHKESES    ', 138.0000,2,  28,  99,  36,1.04000, -16.3482,1.10000,0.90000,1.10000,0.90000
   249,'878S        ', 138.0000,1,  19,  99,   1,1.08170, -24.2158,1.10000,0.90000,1.10000,0.90000
   250,'DUCHESS7    ', 138.0000,1,  47,  99,  17,1.00078, -14.1925,1.10000,0.90000,1.10000,0.90000
   251,'GARDN1      ', 138.0000,1,  55,  99,  10,1.00477, -15.2566,1.10000,0.90000,1.10000,0.90000
   252,'CARSELA7    ', 138.0000,1,  45,  99,  17,1.01250, -21.1350,1.10000,0.90000,1.10000,0.90000
   253,'BLACKIE7    ', 138.0000,1,  45,  99,  17,1.00668, -21.2808,1.10000,0.90000,1.10000,0.90000
   254,'GLEICHE7    ', 138.0000,1,  45,  99, 191,1.01859, -20.1066,1.10000,0.90000,1.10000,0.90000
   255,'CHINOOK9    ',  34.5000,2,  53,  99,  17,0.98626,  -9.2570,1.10000,0.90000,1.10000,0.90000
   256,'BROOKS 7    ', 138.0000,1,  47,  99,  17,1.00701, -13.8921,1.10000,0.90000,1.10000,0.90000
   257,'LIMESTO7    ', 138.0000,1,  38,  99,  17,0.95043, -22.0591,1.10000,0.90000,1.10000,0.90000
   258,'ELLERSLI    ', 500.0000,1,  60,  99,  17,1.04514,  -6.3524,1.10000,0.90000,1.10000,0.90000
   259,'STRATHM7    ', 138.0000,1,  45,  99,  17,1.02722, -21.5176,1.10000,0.90000,1.10000,0.90000
   260,'JENNER 4    ', 240.0000,1,  48,  99,  17,1.07000,  -9.9633,1.10000,0.90000,1.10000,0.90000
   262,'DOME EM4    ', 240.0000,1,  48,  99,  17,1.06988, -10.8301,1.10000,0.90000,1.10000,0.90000
   263,'EMP LIQ7    ', 138.0000,1,  48,  99,  17,1.02613, -11.3912,1.10000,0.90000,1.10000,0.90000
   264,'COWLEY 8    ',  69.0000,1,  53,  99,  17,1.03250,  -9.7118,1.10000,0.90000,1.10000,0.90000
   265,'US WIND9    ',  34.5000,2,  53,  99,  17,0.98611,  -9.4208,1.10000,0.90000,1.10000,0.90000
   266,'EMPRESA7    ', 138.0000,1,  48,  99,  17,1.02732, -11.2765,1.10000,0.90000,1.10000,0.90000
   267,'DOME EM7    ', 138.0000,1,  48,  99,  17,1.02704, -11.2723,1.10000,0.90000,1.10000,0.90000
   268,'DOME EA9    ',  13.8000,2,  48,  99,  17,1.03150, -11.6121,1.10000,0.90000,1.10000,0.90000
   269,'BURDETT7    ', 138.0000,1,  52,  99,  17,1.01585, -16.8522,1.10000,0.90000,1.10000,0.90000
   270,'SUFFIEL7    ', 138.0000,1,   4,  99,  17,0.99577, -15.5497,1.10000,0.90000,1.10000,0.90000
   271,'BULLS H7    ', 138.0000,1,   4,  99,  17,1.02109, -14.9594,1.10000,0.90000,1.10000,0.90000
   272,'TABER  7    ', 138.0000,1,  52,  99,  17,1.00637, -16.8153,1.10000,0.90000,1.10000,0.90000
   274,'VAUXHAL7    ', 138.0000,1,  52,  99,  17,0.99489, -16.3644,1.10000,0.90000,1.10000,0.90000
   275,'TILLEY 7    ', 138.0000,1,  47,  99,  17,1.00385, -15.2376,1.10000,0.90000,1.10000,0.90000
   276,'W BROOK7    ', 138.0000,1,  47,  99,  17,1.01109, -13.4466,1.10000,0.90000,1.10000,0.90000
   277,'WESTFLD7    ', 138.0000,1,  52,  99,  17,1.01429, -16.9420,1.10000,0.90000,1.10000,0.90000
   278,'WARNER 8    ',  69.0000,1,  55,  99,  17,0.96412, -17.7670,1.10000,0.90000,1.10000,0.90000
   279,'STAVELEY    ', 138.0000,1,  49,  99,  17,0.99376, -18.9290,1.10000,0.90000,1.10000,0.90000
   280,'STIRLIN8    ',  69.0000,1,  55,  99,  17,1.01179, -17.5968,1.10000,0.90000,1.10000,0.90000
   282,'HEARTLAK    ', 240.0000,1,  27,  99,   1,1.09295, -13.8508,1.10000,0.90000,1.10000,0.90000
   283,'CANMORE7    ', 138.0000,1,  44,  99,  17,1.01338, -25.0942,1.10000,0.90000,1.10000,0.90000
   284,'BUTTE7      ', 138.0000,1,   4,  99,  17,1.01779, -15.1024,1.10000,0.90000,1.10000,0.90000
   285,'BAYMAG      ', 138.0000,1,  44,  99,  17,1.01029, -25.0550,1.10000,0.90000,1.10000,0.90000
   286,'ENCHANT7    ', 138.0000,1,  52,  99,  17,0.99276, -15.7565,1.10000,0.90000,1.10000,0.90000
   287,'DOME EB9    ',  13.8000,2,  48,  99,  17,1.02966, -12.7568,1.10000,0.90000,1.10000,0.90000
   288,'DOME EC9    ',  13.8000,2,  48,  99,  17,1.03263, -11.3325,1.10000,0.90000,1.10000,0.90000
   289,'DOME EM9    ',  13.8000,2,  48,  99,  17,1.03193, -11.5408,1.10000,0.90000,1.10000,0.90000
   290,'BALZ COG    ', 138.0000,1,   6,  99,  42,1.02392, -22.5145,1.10000,0.90000,1.10000,0.90000
   291,'CONRAD 7    ', 138.0000,1,  52,  99,  17,1.00068, -16.0730,1.10000,0.90000,1.10000,0.90000
   292,'JENNER7     ', 138.0000,1,  48,  99,  17,1.01416, -13.8641,1.10000,0.90000,1.10000,0.90000
   293,'STIRLIN7    ', 138.0000,1,  55,  99,  17,0.98936, -16.5612,1.10000,0.90000,1.10000,0.90000
   295,'DRYCREEK    ', 138.0000,1,  57,  99,  17,1.01481, -22.3015,1.10000,0.90000,1.10000,0.90000
   296,'GOOSEL7     ', 138.0000,1,  53,  99,  17,1.02924, -10.4860,1.10000,0.90000,1.10000,0.90000
   297,'WAINWRI7    ', 138.0000,1,  32,  99,  17,0.98838, -12.7349,1.10000,0.90000,1.10000,0.90000
   298,'ALB NEWS    ', 240.0000,1,  26,  99,  17,1.06013, -14.9654,1.10000,0.90000,1.10000,0.90000
   299,'SUND866S    ',  69.0000,1,  40,  99,  17,1.02042, -12.5926,1.10000,0.90000,1.10000,0.90000
   300,'KEEP320P    ',  69.0000,1,  40,  99,  17,1.02296, -12.5181,1.10000,0.90000,1.10000,0.90000
   301,'KEEPHIL8    ',  69.0000,1,  40,  99,  17,1.02042, -12.5927,1.10000,0.90000,1.10000,0.90000
   302,'MARION 7    ', 138.0000,1,  40,  99,  17,1.03456,  -9.5648,1.10000,0.90000,1.10000,0.90000
   303,'STELCO 1    ', 138.0000,1,  60,  99,  17,1.02378, -17.5540,1.10000,0.90000,1.10000,0.90000
   304,'PLAMOND7    ', 138.0000,1,  27,  99,  17,1.00763, -20.4772,1.10000,0.90000,1.10000,0.90000
   305,'LAC LA 7    ', 138.0000,1,  27,  99,  17,1.00535, -19.2167,1.10000,0.90000,1.10000,0.90000
   306,'WINEFRE7    ', 138.0000,1,  27,  99,  17,1.01924, -13.9587,1.10000,0.90000,1.10000,0.90000
   308,'FLATLK-2    ', 138.0000,1,  27,  99,  17,1.01513, -21.0121,1.10000,0.90000,1.10000,0.90000
   309,'MCMILLA7    ', 138.0000,1,  61,  99,   1,1.07688, -12.2624,1.10000,0.90000,1.10000,0.90000
   310,'SPRAY  S    ', 138.0000,1,  44,  99,  17,1.01610, -24.7904,1.10000,0.90000,1.10000,0.90000
   311,'LEDUC1      ', 138.0000,1,  60,  99,  17,0.96551, -21.1733,1.10000,0.90000,1.10000,0.90000
   312,'E CROSS7    ', 138.0000,1,  57,  99,  17,1.01662, -19.8578,1.10000,0.90000,1.10000,0.90000
   313,'JOSEPH1     ', 240.0000,1,  33,  99,  17,1.02386, -16.1284,1.10000,0.90000,1.10000,0.90000
   314,'JOSEPH2     ', 138.0000,1,  33,  99,  17,1.03156, -16.8936,1.10000,0.90000,1.10000,0.90000
   315,'HUSSAR      ', 138.0000,1,  45,  99,  17,1.03003, -20.2740,1.10000,0.90000,1.10000,0.90000
   316,'LAURATP     ',  69.0000,1,  26,  99,  17,1.02957, -18.1507,1.10000,0.90000,1.10000,0.90000
   317,'CARSONA8    ',  69.0000,1,  26,  99,  17,1.02946, -18.1550,1.10000,0.90000,1.10000,0.90000
   318,'W CROSSF    ', 138.0000,1,  57,  99,  17,1.01209, -20.1803,1.10000,0.90000,1.10000,0.90000
   319,'COALSPU8    ',  69.0000,1,  29,  99,  17,1.02208, -16.3556,1.10000,0.90000,1.10000,0.90000
   320,'CHAPPIC7    ', 138.0000,1,   4,  99,  17,1.01947, -13.9758,1.10000,0.90000,1.10000,0.90000
   321,'HEARTLAK    ', 138.0000,1,  27,  99,   1,1.01523, -15.1457,1.10000,0.90000,1.10000,0.90000
   322,'CARSON 8    ',  69.0000,1,  26,  99,  17,1.03048, -17.9803,1.10000,0.90000,1.10000,0.90000
   323,'CADOMIN8    ',  69.0000,1,  29,  99,  17,1.02079, -16.4177,1.10000,0.90000,1.10000,0.90000
   324,'COALSPU7    ', 138.0000,1,  29,  99,  17,1.01255, -16.2997,1.10000,0.90000,1.10000,0.90000
   325,'PEGAS.L8    ',  69.0000,1,  26,  99,  17,1.02964, -18.0746,1.10000,0.90000,1.10000,0.90000
   326,'COAL VA7    ', 138.0000,1,  29,  99,  17,1.00868, -16.4962,1.10000,0.90000,1.10000,0.90000
   328,'MACLEOD1    ', 138.0000,1,  53,  99,  19,1.01524,  -8.5426,1.10000,0.90000,1.10000,0.90000
   329,'POCATER7    ', 138.0000,1,  44,  99,  17,1.01414, -21.7925,1.10000,0.90000,1.10000,0.90000
   330,'P C BRA7    ', 138.0000,1,  30,  99,  17,1.00632, -18.7551,1.10000,0.90000,1.10000,0.90000