0,   100.00, 33, 0, 1, 60.00     / PSS(R)E-33.4    THU, JUN 27 2013   0:34
TASMO MODEL; OUTPUT GENERATED 2012-09-18 09:36:04
SWINGBUS 1520 FOR 2012LPBL-1:2013-03-01:1:203--1-0-0-0
     1,'JUDY515S    ',  69.0000,1,  26,  99,  17,1.05320, -22.1481,1.10000,0.90000,1.10000,0.90000
     2,'MAYERTH     ', 138.0000,1,  40,  99,  17,1.02324, -18.7222,1.10000,0.90000,1.10000,0.90000
     3,'COLINTO7    ', 138.0000,1,  27,  99,  17,1.03675, -19.5044,1.10000,0.90000,1.10000,0.90000
     4,'WESTLOC7    ', 138.0000,1,  27,  99,  17,1.03325, -17.3752,1.10000,0.90000,1.10000,0.90000
     5,'CLYDE  7    ', 138.0000,1,  27,  99,  17,1.03354, -17.5317,1.10000,0.90000,1.10000,0.90000
     6,'DICKSOA9    ',   4.1600,1,  39,  99,   7,1.04526, -21.5100,1.10000,0.90000,1.10000,0.90000
     7,'BOYLE  7    ', 138.0000,1,  27,  99,  17,1.04185, -20.2906,1.10000,0.90000,1.10000,0.90000
     8,'WHI 3647    ', 138.0000,1,  26,  99,  17,1.02902, -20.0193,1.10000,0.90000,1.10000,0.90000
     9,'WHITECO7    ', 138.0000,1,  26,  99,  17,1.02954, -20.4140,1.10000,0.90000,1.10000,0.90000
    10,'WHITECO8    ',  69.0000,1,  26,  99,  17,1.05801, -19.8090,1.10000,0.90000,1.10000,0.90000
    12,'FOX CREE    ', 138.0000,1,  24,  99,  17,1.03152, -22.3037,1.10000,0.90000,1.10000,0.90000
    13,'KAYBOB 7    ', 138.0000,1,  24,  99,  17,1.01678, -21.3600,1.10000,0.90000,1.10000,0.90000
    14,'WESGEN 9    ',  13.8000,2,  27,  99,   4,1.02500, -14.2451,1.10000,0.90000,1.10000,0.90000
    15,'MTN COA7    ', 138.0000,1,  29,  99,  17,1.00547, -18.1907,1.10000,0.90000,1.10000,0.90000
    16,'FLATBUS7    ', 138.0000,1,  27,  99,  17,1.03493, -16.8904,1.10000,0.90000,1.10000,0.90000
    17,'COLD CR7    ', 138.0000,1,  29,  99,  17,1.00169, -18.4426,1.10000,0.90000,1.10000,0.90000
    18,'GULF RO7    ', 138.0000,1,  29,  99,  17,1.01160, -18.0088,1.10000,0.90000,1.10000,0.90000
    19,'WESGEN T    ', 138.0000,1,  27,  99,  17,1.03627, -16.7922,1.10000,0.90000,1.10000,0.90000
    20,'EDSON  7    ', 138.0000,1,  29,  99,  17,1.01788, -17.4910,1.10000,0.90000,1.10000,0.90000
    21,'WESGEN 7    ', 138.0000,1,  27,  99,   4,1.03695, -16.4755,1.10000,0.90000,1.10000,0.90000
    26,'ENTWIST7    ', 138.0000,1,  40,  99,  17,1.01906, -17.0128,1.10000,0.90000,1.10000,0.90000
    27,'WABAMUN8    ',  69.0000,1,  40,  99,  17,1.03324, -14.5413,1.10000,0.90000,1.10000,0.90000
    31,'FINCAST7    ', 138.0000,1,  52,  99,  17,1.00832, -23.5246,1.10000,0.90000,1.10000,0.90000
    32,'ONOWAY 8    ',  69.0000,1,  40,  99,  17,1.03383, -14.5703,1.10000,0.90000,1.10000,0.90000
    33,'BRAZEAA9    ',  13.2000,2,  30,  99,  17,1.00761, -20.5462,1.10000,0.90000,1.10000,0.90000
    35,'LODGEPO7    ', 138.0000,1,  30,  99,  17,1.00893, -18.6564,1.10000,0.90000,1.10000,0.90000
    36,'BRAZEAU7    ', 138.0000,1,  30,  99,  17,1.02271, -18.8589,1.10000,0.90000,1.10000,0.90000
    37,'HRT EXP7    ', 138.0000,1,  32,  99,  25,1.03435, -24.7854,1.10000,0.90000,1.10000,0.90000
    38,'BRAZ OUT    ', 138.0000,1,  30,  99,  17,1.01867, -19.4995,1.10000,0.90000,1.10000,0.90000
    39,'CYNTHIA7    ', 138.0000,1,  30,  99,  17,1.01173, -19.7188,1.10000,0.90000,1.10000,0.90000
    40,'N CALDE7    ', 138.0000,1,  60,  99,  17,1.03611, -15.3656,1.10000,0.90000,1.10000,0.90000
    41,'N BARRH7    ', 138.0000,1,  40,  99,  17,1.03401, -17.1784,1.10000,0.90000,1.10000,0.90000
    42,'AMOCO BR    ', 138.0000,1,  30,  99,  17,1.01653, -20.4648,1.10000,0.90000,1.10000,0.90000
    43,'SCOTF_4     ', 138.0000,2,  33,  99,  29,1.03000, -14.8234,1.10000,0.90000,1.10000,0.90000
    44,'FT ASBN7    ', 138.0000,1,  40,  99,  17,1.04133, -19.1456,1.10000,0.90000,1.10000,0.90000
    47,'SHERWOO7    ', 138.0000,1,  60,  99,  17,1.02610, -15.1417,1.10000,0.90000,1.10000,0.90000
    48,'DIAM SH7    ', 138.0000,1,  33,  99,  17,1.03227, -14.7853,1.10000,0.90000,1.10000,0.90000
    49,'KEYSTON7    ', 138.0000,1,  30,  99,  17,1.01256, -13.3628,1.10000,0.90000,1.10000,0.90000
    50,'RIVERSID    ', 138.0000,2,  33,  99, 211,1.02923, -14.9302,1.10000,0.90000,1.10000,0.90000
    51,'W PEMBI7    ', 138.0000,1,  30,  99,  17,1.01309, -20.4315,1.10000,0.90000,1.10000,0.90000
    52,'BLUERIDG    ', 138.0000,1,  26,  99,  17,1.02305, -20.0344,1.10000,0.90000,1.10000,0.90000
    53,'SANDYPT7    ', 138.0000,1,  48,  99,  17,1.03175, -25.9105,1.10000,0.90000,1.10000,0.90000
    55,'GULF OI7    ', 138.0000,1,  60,  99,  17,1.02988, -15.0319,1.10000,0.90000,1.10000,0.90000
    56,'IPPL ED7    ', 138.0000,1,  60,  99,  17,1.03053, -15.0052,1.10000,0.90000,1.10000,0.90000
    57,'LAMOURE4    ', 240.0000,1,  33,  99,  17,1.03666, -13.8398,1.10000,0.90000,1.10000,0.90000
    58,'FORT SA7    ', 138.0000,1,  60,  99,  17,1.02898, -14.7519,1.10000,0.90000,1.10000,0.90000
    59,'REDWATE7    ', 138.0000,1,  33,  99,  17,1.02005, -15.2986,1.10000,0.90000,1.10000,0.90000
    60,'BEAMER 7    ', 138.0000,1,  33,  99,  17,1.02635, -15.0303,1.10000,0.90000,1.10000,0.90000
    61,'UN CARB9    ', 138.0000,2,  33,  99, 191,1.03000, -14.5716,1.10000,0.90000,1.10000,0.90000
    62,'SHERRIT7    ', 138.0000,1,  33,  99,  17,1.02951, -14.7353,1.10000,0.90000,1.10000,0.90000
    63,'LAMOURE7    ', 138.0000,1,  33,  99,  17,1.03196, -14.6095,1.10000,0.90000,1.10000,0.90000
    64,'BANFF  7    ', 138.0000,1,  44,  99,  17,1.02750, -24.4708,1.10000,0.90000,1.10000,0.90000
    65,'BARDO  7    ', 138.0000,1,  31,  99,  17,1.02884, -17.9426,1.10000,0.90000,1.10000,0.90000
    66,'IOL 737L    ', 138.0000,1,  60,  99,  17,1.02904, -15.0758,1.10000,0.90000,1.10000,0.90000
    67,'BRUDERH7    ', 138.0000,1,  33,  99,  17,1.03383, -15.0453,1.10000,0.90000,1.10000,0.90000
    68,'N HOLDE7    ', 138.0000,1,  56,  99,  17,1.04143, -19.0239,1.10000,0.90000,1.10000,0.90000
    69,'IOL 738L    ', 138.0000,1,  60,  99,  17,1.02445, -15.3655,1.10000,0.90000,1.10000,0.90000
    70,'CAMROSE7    ', 138.0000,1,  31,  99,  17,1.02149, -18.0627,1.10000,0.90000,1.10000,0.90000
    71,'JARROW 8    ',  69.0000,1,  32,  99,  17,1.05900, -23.2413,1.10000,0.90000,1.10000,0.90000
    72,'JARROW 7    ', 138.0000,1,  32,  99,  17,1.04070, -23.2238,1.10000,0.90000,1.10000,0.90000
    73,'HARDIST7    ', 138.0000,1,  32,  99,  17,1.03486, -24.7989,1.10000,0.90000,1.10000,0.90000
    74,'METIS647    ', 138.0000,1,  37,  99,  17,1.02053, -23.3598,1.10000,0.90000,1.10000,0.90000
    75,'HUGHEND7    ', 138.0000,1,  37,  99,  17,1.02343, -24.2809,1.10000,0.90000,1.10000,0.90000
    76,'IPPL ST7    ', 138.0000,1,  56,  99,  17,1.06524, -17.4810,1.10000,0.90000,1.10000,0.90000
    77,'WAINWRI8    ',  69.0000,1,  32,  99,  17,1.06043, -23.3503,1.10000,0.90000,1.10000,0.90000
    78,'SEDGEWI7    ', 138.0000,1,  32,  99,  17,1.04454, -21.7040,1.10000,0.90000,1.10000,0.90000
    79,'BUFFALO7    ', 138.0000,1,  32,  99,  17,1.03772, -24.3968,1.10000,0.90000,1.10000,0.90000
    80,'BUCKLAK7    ', 138.0000,1,  30,  99,  17,1.00534, -16.7380,1.10000,0.90000,1.10000,0.90000
    81,'BIGSTON4    ', 240.0000,1,  31,  99,  17,1.03197, -13.8328,1.10000,0.90000,1.10000,0.90000
    82,'CHEVRON7    ', 138.0000,1,  24,  99,  17,1.01653, -21.3683,1.10000,0.90000,1.10000,0.90000
    83,'RBCUPIL7    ', 138.0000,1,  17,  99,  21,1.08236, -28.2132,1.10000,0.90000,1.10000,0.90000
    85,'MILLAR 7    ', 138.0000,1,  26,  99,  17,1.01015, -20.5466,1.10000,0.90000,1.10000,0.90000
    86,'PROVOST7    ', 138.0000,1,  37,  99,  17,1.01211, -23.7359,1.10000,0.90000,1.10000,0.90000
    87,'METIS644    ', 240.0000,1,  37,  99,  17,1.06012, -20.9483,1.10000,0.90000,1.10000,0.90000
    88,'BICKERD7    ', 138.0000,1,  29,  99,  17,1.02221, -17.0363,1.10000,0.90000,1.10000,0.90000
    89,'E EDMON7    ', 138.0000,1,  60,  99,  17,1.03115, -14.9728,1.10000,0.90000,1.10000,0.90000
    90,'BICKERD4    ', 240.0000,1,  29,  99,  17,1.07722, -15.2199,1.10000,0.90000,1.10000,0.90000
    91,'NISKU  7    ', 138.0000,1,  60,  99,  17,1.02230, -17.1621,1.10000,0.90000,1.10000,0.90000
    93,'WETASKI7    ', 138.0000,1,  31,  99,  17,1.03065, -17.2009,1.10000,0.90000,1.10000,0.90000
    94,'ERVICK 7    ', 138.0000,1,  31,  99,  17,1.02226, -17.9280,1.10000,0.90000,1.10000,0.90000
    95,'PONOKA 7    ', 138.0000,1,  31,  99,  17,1.01810, -18.6655,1.10000,0.90000,1.10000,0.90000
    96,'DEVON  7    ', 138.0000,1,  60,  99,  17,1.01370, -17.2856,1.10000,0.90000,1.10000,0.90000
    97,'ECKVILL7    ', 138.0000,1,  35,  99,  17,1.02506, -18.3535,1.10000,0.90000,1.10000,0.90000
    98,'RIMBEY 7    ', 138.0000,1,  35,  99,  17,1.01549, -18.7783,1.10000,0.90000,1.10000,0.90000
    99,'BENALTO7    ', 138.0000,1,  35,  99,  17,1.03183, -18.0393,1.10000,0.90000,1.10000,0.90000
   100,'ROCKY M7    ', 138.0000,1,  38,  99,  17,1.01151, -20.0379,1.10000,0.90000,1.10000,0.90000
   101,'COOKING7    ', 138.0000,1,  60,  99,  17,1.02574, -16.8590,1.10000,0.90000,1.10000,0.90000
   102,'BIGHORN1    ',  13.8000,2,  34,  99,  17,0.98804, -18.3753,1.10000,0.90000,1.10000,0.90000
   103,'BIG HOR7    ', 138.0000,1,  34,  99,  17,1.00781, -18.3753,1.10000,0.90000,1.10000,0.90000
   104,'STRACHA7    ', 138.0000,1,  38,  99,  17,1.01119, -20.7772,1.10000,0.90000,1.10000,0.90000
   105,'PIGEON 7    ', 138.0000,1,  31,  99,  17,1.02302, -17.2053,1.10000,0.90000,1.10000,0.90000
   106,'DEERLAN7    ', 138.0000,1,  33,  99,  17,1.02758, -14.8787,1.10000,0.90000,1.10000,0.90000
   107,'SUNDRE 7    ', 138.0000,1,  38,  99,  17,0.98746, -22.1946,1.10000,0.90000,1.10000,0.90000
   108,'BIGHORN2    ',  13.8000,2,  34,  99,  17,0.97200, -14.9455,1.10000,0.90000,1.10000,0.90000
   109,'DEERLAN4    ', 240.0000,1,  33,  99,  17,1.05432, -14.2769,1.10000,0.90000,1.10000,0.90000
   110,'IPL EDM7    ', 138.0000,1,  60,  99,  17,1.03053, -15.0058,1.10000,0.90000,1.10000,0.90000
   111,'SANDHIL7    ', 138.0000,1,  48,  99,  17,1.03172, -25.9274,1.10000,0.90000,1.10000,0.90000
   112,'SUNKEN7     ', 138.0000,1,  37,  99,  17,1.02048, -23.3755,1.10000,0.90000,1.10000,0.90000
   113,'BLACKFA7    ', 138.0000,1,  35,  99,  17,1.02147, -19.1391,1.10000,0.90000,1.10000,0.90000
   114,'LACOMBE7    ', 138.0000,1,  35,  99,  17,1.01696, -19.1445,1.10000,0.90000,1.10000,0.90000
   115,'S RED DE    ', 138.0000,1,  35,  99,  17,1.02512, -18.9470,1.10000,0.90000,1.10000,0.90000
   116,'W LACOMB    ', 138.0000,1,  35,  99,  17,1.01906, -19.0642,1.10000,0.90000,1.10000,0.90000
   117,'RED DE A    ', 138.0000,1,  35,  99,  17,1.02456, -18.8181,1.10000,0.90000,1.10000,0.90000
   118,'RED DE B    ', 138.0000,1,  35,  99,  17,1.02456, -18.8181,1.10000,0.90000,1.10000,0.90000
   119,'N RED D7    ', 138.0000,1,  35,  99,  17,1.02800, -19.0107,1.10000,0.90000,1.10000,0.90000
   120,'INNISFA7    ', 138.0000,1,  39,  99,  17,1.01068, -20.3946,1.10000,0.90000,1.10000,0.90000
   121,'OLDS   7    ', 138.0000,1,  39,  99,  17,0.99879, -22.0182,1.10000,0.90000,1.10000,0.90000
   122,'MADDEN 7    ', 138.0000,1,  39,  99,  17,0.99851, -23.2243,1.10000,0.90000,1.10000,0.90000
   123,'DIDSBURY    ', 138.0000,1,  39,  99,  17,0.99922, -22.5596,1.10000,0.90000,1.10000,0.90000
   124,'HARMATT7    ', 138.0000,1,  39,  99,  17,0.99788, -22.6129,1.10000,0.90000,1.10000,0.90000
   125,'YASAA7      ', 138.0000,1,  60,  99,  17,1.03021, -15.0153,1.10000,0.90000,1.10000,0.90000
   126,'SHELL H7    ', 138.0000,1,  39,  99,  17,0.99798, -22.6181,1.10000,0.90000,1.10000,0.90000
   127,'BEDDING2    ', 138.0000,1,   6,  99,   3,1.02873, -21.9905,1.10000,0.90000,1.10000,0.90000
   128,'ELLERSLI    ', 240.0000,1,  60,  99,  17,1.03664, -10.5845,1.10000,0.90000,1.10000,0.90000
   130,'SUND#3GN    ',  20.0000,2,  40,  99,  17,1.03000,  -5.9305,1.10000,0.90000,1.10000,0.90000
   131,'SUNDANA8    ',  69.0000,1,  40,  99,  17,1.02360, -13.1897,1.10000,0.90000,1.10000,0.90000
   132,'SUNDANC7    ', 138.0000,1,  40,  99,  17,1.02949, -11.3420,1.10000,0.90000,1.10000,0.90000
   133,'WABAMUN4    ', 240.0000,1,  40,  99,  17,1.07124, -12.5096,1.10000,0.90000,1.10000,0.90000
   134,'WABAMUN7    ', 138.0000,1,  40,  99,  17,1.03422, -14.7288,1.10000,0.90000,1.10000,0.90000
   135,'SUNDANC4    ', 240.0000,1,  40,  99,  17,1.08270, -11.5901,1.10000,0.90000,1.10000,0.90000
   136,'E EDMON4    ', 240.0000,1,  60,  99,  17,1.03065, -11.5823,1.10000,0.90000,1.10000,0.90000
   137,'N CALDE4    ', 240.0000,1,  60,  99,  17,1.04438, -13.3930,1.10000,0.90000,1.10000,0.90000
   138,'N BARRH4    ', 240.0000,1,  40,  99,  17,1.09934, -15.6791,1.10000,0.90000,1.10000,0.90000
   141,'DALEHUR7    ', 138.0000,1,  29,  99,  17,1.00616, -18.1459,1.10000,0.90000,1.10000,0.90000
   142,'KINGMAN7    ', 138.0000,1,  31,  99,  17,1.02533, -18.0475,1.10000,0.90000,1.10000,0.90000
   144,'ALGAR  7    ', 138.0000,1,  61,  99,   1,1.06379, -12.7206,1.10000,0.90000,1.10000,0.90000
   147,'GAETZ  4    ', 240.0000,1,  35,  99,  17,1.04197, -17.2056,1.10000,0.90000,1.10000,0.90000
   148,'GAETZ  7    ', 138.0000,1,  35,  99,  17,1.03229, -18.8850,1.10000,0.90000,1.10000,0.90000
   150,'WILLESD4    ', 240.0000,1,  30,  99,  17,1.05672, -17.1541,1.10000,0.90000,1.10000,0.90000
   151,'BRAZ#1 9    ',  13.8000,2,  30,  99,  17,0.98000, -17.2952,1.10000,0.90000,1.10000,0.90000
   152,'RED DEE4    ', 240.0000,1,  35,  99,  17,1.05162, -17.3239,1.10000,0.90000,1.10000,0.90000
   153,'BRAZEAU4    ', 240.0000,1,  30,  99,  17,1.05236, -17.5747,1.10000,0.90000,1.10000,0.90000
   154,'BRAZ#2 9    ',  13.8000,2,  30,  99,  17,0.98205, -17.5747,1.10000,0.90000,1.10000,0.90000
   155,'BENALTO4    ', 240.0000,1,  35,  99,  17,1.06203, -16.0961,1.10000,0.90000,1.10000,0.90000
   156,'E CROSS4    ', 240.0000,1,  57,  99,  17,1.04340, -19.3324,1.10000,0.90000,1.10000,0.90000
   157,'COCHIN 8    ',  69.0000,1,  32,  99, 241,1.06039, -23.3526,1.10000,0.90000,1.10000,0.90000
   158,'LANGDON2    ', 500.0000,1,   6,  99,  17,1.07676, -16.2187,1.10000,0.90000,1.10000,0.90000
   159,'LANGDON4    ', 240.0000,1,   6,  99,  17,1.05400, -18.3312,1.10000,0.90000,1.10000,0.90000
   160,'JANET  4    ', 240.0000,1,   6,  99,  17,1.04604, -19.6852,1.10000,0.90000,1.10000,0.90000
   161,'SARCEE 4    ', 240.0000,1,   6,  99,  17,1.04161, -20.9504,1.10000,0.90000,1.10000,0.90000
   162,'E CALGAR    ', 240.0000,1,   6,  99,  17,1.03380, -20.5665,1.10000,0.90000,1.10000,0.90000
   163,'SAGITAW4    ', 240.0000,1,  26,  99,  17,1.06154, -18.3763,1.10000,0.90000,1.10000,0.90000
   164,'SAGITAW7    ', 138.0000,1,  26,  99,  17,1.02978, -19.6626,1.10000,0.90000,1.10000,0.90000
   165,'PEIGAN 4    ', 240.0000,1,  53,  99, 191,1.05613, -18.0173,1.10000,0.90000,1.10000,0.90000
   166,'PEIGAN 7    ', 138.0000,1,  53,  99, 191,1.02027, -15.9094,1.10000,0.90000,1.10000,0.90000
   167,'N LETHB4    ', 240.0000,1,  54,  99,  17,1.05847, -19.2904,1.10000,0.90000,1.10000,0.90000
   168,'SUNSHIN8    ',  69.0000,1,  44,  99,  17,0.98512, -29.0976,1.10000,0.90000,1.10000,0.90000
   169,'CAN CEM7    ', 138.0000,1,  44,  99,  17,1.02741, -23.8876,1.10000,0.90000,1.10000,0.90000
   170,'COCHRAN7    ', 138.0000,1,  44,  99,  17,1.00623, -24.2320,1.10000,0.90000,1.10000,0.90000
   171,'SEEBE  7    ', 138.0000,1,  44,  99, 191,1.02649, -23.5102,1.10000,0.90000,1.10000,0.90000
   172,'HORS GEN    ',  12.0000,2,  44,  99,  17,1.02500, -21.1670,1.10000,0.90000,1.10000,0.90000
   173,'BRETV A7    ', 138.0000,1,  60,  99,  17,1.02988, -15.0309,1.10000,0.90000,1.10000,0.90000
   174,'SPRAY G1    ',  13.2000,2,  44,  99,  17,1.04663, -21.2259,1.10000,0.90000,1.10000,0.90000
   175,'CASCADE7    ', 138.0000,1,  44,  99, 194,1.02941, -24.3710,1.10000,0.90000,1.10000,0.90000
   176,'CASCADE9    ',  13.2000,2,  44,  99, 194,1.04393, -24.4373,1.10000,0.90000,1.10000,0.90000
   177,'AIRDRIE     ', 138.0000,1,  57,  99,  17,1.01856, -21.8192,1.10000,0.90000,1.10000,0.90000
   178,'BANFF  8    ',  69.0000,1,  44,  99,  17,0.98843, -28.9105,1.10000,0.90000,1.10000,0.90000
   179,'MARIANA7    ', 138.0000,1,  61,  99,   1,1.06854, -13.1554,1.10000,0.90000,1.10000,0.90000
   180,'GHOST  7    ', 138.0000,1,  44,  99,  17,1.01371, -23.8547,1.10000,0.90000,1.10000,0.90000
   181,'GHOST A9    ',  13.2000,2,  44,  99,  17,1.00000, -23.1775,1.10000,0.90000,1.10000,0.90000
   183,'BEARSPWB    ',  13.2000,2,  44,  99,  17,1.04888, -22.9748,1.10000,0.90000,1.10000,0.90000
   184,'BEARSPAW    ', 138.0000,1,  44,  99,  17,1.01238, -23.7258,1.10000,0.90000,1.10000,0.90000
   187,'BEDDING1    ', 240.0000,1,   6,  99,   3,1.03509, -20.1604,1.10000,0.90000,1.10000,0.90000
   188,'ANG COCA    ',  25.0000,1,  44,  99,  17,1.04617, -25.5633,1.10000,0.90000,1.10000,0.90000
   189,'ANG COCB    ',  13.8000,2,  44,  99,  17,0.99829, -27.9896,1.10000,0.90000,1.10000,0.90000
   190,'SPRAY G2    ',  13.2000,2,  44,  99,  17,1.03286, -23.8100,1.10000,0.90000,1.10000,0.90000
   191,'ANG COCH    ', 138.0000,1,  44,  99,  17,1.00466, -24.4301,1.10000,0.90000,1.10000,0.90000
   192,'NELSON L    ', 138.0000,1,  31,  99,  17,1.01510, -18.8085,1.10000,0.90000,1.10000,0.90000
   193,'KANANAS7    ', 138.0000,1,  44,  99,  17,1.02716, -23.4747,1.10000,0.90000,1.10000,0.90000
   194,'LAKE LO8    ',  69.0000,1,  44,  99,  17,0.96308, -29.5497,1.10000,0.90000,1.10000,0.90000
   195,'RUNDLE S    ', 138.0000,1,  44,  99,  17,1.03268, -23.8924,1.10000,0.90000,1.10000,0.90000
   196,'KANANAS9    ',  12.0000,2,  44,  99,  17,1.04786, -21.1737,1.10000,0.90000,1.10000,0.90000
   197,'RUNDLE G    ',  13.8000,2,  44,  99,  17,1.04761, -22.3145,1.10000,0.90000,1.10000,0.90000
   198,'BALZAC 7    ', 138.0000,1,   6,  99,  17,1.02887, -21.9714,1.10000,0.90000,1.10000,0.90000
   199,'SHELL J7    ', 138.0000,1,  44,  99,  17,1.01133, -23.8849,1.10000,0.90000,1.10000,0.90000
   201,'JUMPPND7    ', 138.0000,1,  44,  99,  17,1.01955, -23.5682,1.10000,0.90000,1.10000,0.90000
   202,'SARCEE 7    ', 138.0000,1,   6,  99,  17,1.01525, -23.1043,1.10000,0.90000,1.10000,0.90000
   203,'SARCEE C    ',  13.8000,1,   6,  99,  17,1.05454, -23.1713,1.10000,0.90000,1.10000,0.90000
   204,'MCMILLA4    ', 240.0000,1,  61,  99,   1,1.10510, -12.5221,1.10000,0.90000,1.10000,0.90000
   205,'AMOCO R7    ', 138.0000,1,  38,  99,  17,0.98879, -21.9727,1.10000,0.90000,1.10000,0.90000
   207,'JANET  7    ', 138.0000,1,   6,  99,  17,1.01788, -22.2569,1.10000,0.90000,1.10000,0.90000
   208,'ENMX2S 7    ', 138.0000,1,   6,  99,   3,1.01552, -23.3798,1.10000,0.90000,1.10000,0.90000
   209,'BRETONA1    ', 138.0000,1,  60,  99,  17,1.02746, -15.6872,1.10000,0.90000,1.10000,0.90000
   211,'MOUNT A7    ', 138.0000,1,  44,  99,  17,1.03091, -23.6969,1.10000,0.90000,1.10000,0.90000
   213,'HAIGRIVE    ', 138.0000,1,  17,  99,   1,1.10123, -28.3853,1.10000,0.90000,1.10000,0.90000
   214,'POCATEA9    ',  13.8000,2,  44,  99,  17,1.00605, -22.1612,1.10000,0.90000,1.10000,0.90000
   215,'TEX.W.P7    ', 138.0000,1,  30,  99,  17,1.00965, -19.5606,1.10000,0.90000,1.10000,0.90000
   216,'BARRIER7    ', 138.0000,1,  44,  99,  17,1.02870, -23.5712,1.10000,0.90000,1.10000,0.90000
   218,'BLACKMUD    ', 138.0000,1,  60,  99,  17,1.01925, -17.2392,1.10000,0.90000,1.10000,0.90000
   219,'KILLARN7    ', 138.0000,1,  37,  99,  17,1.01099, -26.3704,1.10000,0.90000,1.10000,0.90000
   220,'HAYTER 7    ', 138.0000,1,  37,  99,  17,0.99733, -26.9376,1.10000,0.90000,1.10000,0.90000
   221,'CRR-W1      ', 240.0000,1,  53,  99,  58,1.04880, -17.4752,1.10000,0.90000,1.10000,0.90000
   222,'BARRIER9    ',  13.2000,2,  44,  99,  17,1.03000, -22.2854,1.10000,0.90000,1.10000,0.90000
   223,'PINCHER8    ',  69.0000,1,  53,  99,  17,1.02328, -16.8297,1.10000,0.90000,1.10000,0.90000
   224,'PINCHER7    ', 138.0000,1,  53,  99,  17,1.05291, -16.5607,1.10000,0.90000,1.10000,0.90000
   225,'WARE JCT    ', 240.0000,1,  47,  99,  17,1.07530, -20.3465,1.10000,0.90000,1.10000,0.90000
   226,'DRYWOOD8    ',  69.0000,1,  55,  99,  17,1.02813, -17.8128,1.10000,0.90000,1.10000,0.90000
   227,'SHELL WA    ',  69.0000,1,  55,  99,  17,1.01345, -18.0377,1.10000,0.90000,1.10000,0.90000
   228,'YARROW 8    ',  69.0000,1,  55,  99,  17,1.02803, -17.8154,1.10000,0.90000,1.10000,0.90000
   229,'170AL-TA    ', 138.0000,1,  53,  99,  17,1.04973, -16.5366,1.10000,0.90000,1.10000,0.90000
   230,'OLDMAN D    ', 138.0000,1,  53,  99,   1,1.05676, -16.1184,1.10000,0.90000,1.10000,0.90000
   231,'N SHELL8    ',  69.0000,1,  55,  99,  17,1.01245, -18.0797,1.10000,0.90000,1.10000,0.90000
   232,'COLEMAN7    ', 138.0000,1,  53,  99,  17,1.04469, -16.5221,1.10000,0.90000,1.10000,0.90000
   233,'DRYWOOD7    ', 138.0000,1,  55,  99,  17,1.04315, -16.7825,1.10000,0.90000,1.10000,0.90000
   234,'CASTRIV1    ', 138.0000,1,  53,  99,  44,1.05252, -16.4819,1.10000,0.90000,1.10000,0.90000
   235,'STAVELY7    ', 138.0000,1,  49,  99,  17,1.01000, -21.9049,1.10000,0.90000,1.10000,0.90000
   236,'HIGH RI8    ',  69.0000,1,  46,  99,  17,1.06015, -24.5925,1.10000,0.90000,1.10000,0.90000
   237,'FORT MA7    ', 138.0000,1,  53,  99,  17,1.01688, -20.7123,1.10000,0.90000,1.10000,0.90000
   238,'BLACK D7    ', 138.0000,1,  46,  99,  17,0.99793, -24.1219,1.10000,0.90000,1.10000,0.90000
   239,'OKOTOKS7    ', 138.0000,1,  46,  99,  17,1.00669, -23.6374,1.10000,0.90000,1.10000,0.90000
   240,'MAGCAN 7    ', 138.0000,1,  46,  99,  17,1.00895, -23.8303,1.10000,0.90000,1.10000,0.90000
   241,'BLACK D8    ',  69.0000,1,  46,  99,  17,1.02855, -25.3001,1.10000,0.90000,1.10000,0.90000
   242,'HIGH RI7    ', 138.0000,1,  46,  99,  17,1.00334, -23.8218,1.10000,0.90000,1.10000,0.90000
   243,'HARTELL7    ', 138.0000,1,  46,  99,  17,0.99924, -24.0624,1.10000,0.90000,1.10000,0.90000
   244,'VULCAN 7    ', 138.0000,1,  49,  99,  17,1.01154, -22.2037,1.10000,0.90000,1.10000,0.90000
   245,'GLENWOO8    ',  69.0000,1,  55,  99, 191,1.01583, -18.1414,1.10000,0.90000,1.10000,0.90000
   246,'SPRING 8    ',  69.0000,1,  55,  99,  17,1.01434, -18.4209,1.10000,0.90000,1.10000,0.90000
   247,'CAVALIER    ', 138.0000,1,  45,  99,  42,1.03046, -21.5343,1.10000,0.90000,1.10000,0.90000
   248,'MAHKESES    ', 138.0000,2,  28,  99,  36,1.04000, -14.9157,1.10000,0.90000,1.10000,0.90000
   249,'878S        ', 138.0000,1,  19,  99,   1,1.08280, -28.0417,1.10000,0.90000,1.10000,0.90000
   250,'DUCHESS7    ', 138.0000,1,  47,  99,  17,1.01878, -22.4106,1.10000,0.90000,1.10000,0.90000
   251,'GARDN1      ', 138.0000,1,  55,  99,  10,1.02259, -19.6600,1.10000,0.90000,1.10000,0.90000
   252,'CARSELA7    ', 138.0000,1,  45,  99,  17,1.01544, -21.2516,1.10000,0.90000,1.10000,0.90000
   253,'BLACKIE7    ', 138.0000,1,  45,  99,  17,1.01475, -22.3442,1.10000,0.90000,1.10000,0.90000
   254,'GLEICHE7    ', 138.0000,1,  45,  99, 191,1.02270, -22.0795,1.10000,0.90000,1.10000,0.90000
   255,'CHINOOK9    ',  34.5000,2,  53,  99,  17,0.98489, -15.9480,1.10000,0.90000,1.10000,0.90000
   256,'BROOKS 7    ', 138.0000,1,  47,  99,  17,1.02366, -22.1690,1.10000,0.90000,1.10000,0.90000
   257,'LIMESTO7    ', 138.0000,1,  38,  99,  17,0.97716, -22.5555,1.10000,0.90000,1.10000,0.90000
   258,'ELLERSLI    ', 500.0000,1,  60,  99,  17,1.04779,  -4.4756,1.10000,0.90000,1.10000,0.90000
   259,'STRATHM7    ', 138.0000,1,  45,  99,  17,1.02176, -22.0820,1.10000,0.90000,1.10000,0.90000
   260,'JENNER 4    ', 240.0000,1,  48,  99,  17,1.07271, -22.7241,1.10000,0.90000,1.10000,0.90000
   262,'DOME EM4    ', 240.0000,1,  48,  99,  17,1.06990, -24.6666,1.10000,0.90000,1.10000,0.90000
   263,'EMP LIQ7    ', 138.0000,1,  48,  99,  17,1.03010, -26.1206,1.10000,0.90000,1.10000,0.90000
   264,'COWLEY 8    ',  69.0000,1,  53,  99,  17,1.03096, -16.3263,1.10000,0.90000,1.10000,0.90000
   265,'US WIND9    ',  34.5000,2,  53,  99,  17,0.98474, -16.1122,1.10000,0.90000,1.10000,0.90000
   266,'EMPRESA7    ', 138.0000,1,  48,  99,  17,1.03224, -25.9120,1.10000,0.90000,1.10000,0.90000
   267,'DOME EM7    ', 138.0000,1,  48,  99,  17,1.03190, -25.9035,1.10000,0.90000,1.10000,0.90000
   268,'DOME EA9    ',  13.8000,2,  48,  99,  17,1.02980, -25.8427,1.10000,0.90000,1.10000,0.90000
   269,'BURDETT7    ', 138.0000,1,  52,  99,  17,1.00618, -24.6581,1.10000,0.90000,1.10000,0.90000
   270,'SUFFIEL7    ', 138.0000,1,   4,  99,  17,0.99928, -25.4404,1.10000,0.90000,1.10000,0.90000
   271,'BULLS H7    ', 138.0000,1,   4,  99,  17,1.02086, -25.7605,1.10000,0.90000,1.10000,0.90000
   272,'TABER  7    ', 138.0000,1,  52,  99,  17,1.01037, -23.2922,1.10000,0.90000,1.10000,0.90000
   274,'VAUXHAL7    ', 138.0000,1,  52,  99,  17,1.00941, -23.6245,1.10000,0.90000,1.10000,0.90000
   275,'TILLEY 7    ', 138.0000,1,  47,  99,  17,1.00428, -23.7948,1.10000,0.90000,1.10000,0.90000
   276,'W BROOK7    ', 138.0000,1,  47,  99,  17,1.02643, -21.8545,1.10000,0.90000,1.10000,0.90000
   277,'WESTFLD7    ', 138.0000,1,  52,  99,  17,1.00550, -24.7095,1.10000,0.90000,1.10000,0.90000
   278,'WARNER 8    ',  69.0000,1,  55,  99,  17,0.99253, -20.3286,1.10000,0.90000,1.10000,0.90000
   279,'STAVELEY    ', 138.0000,1,  49,  99,  17,1.01235, -21.7877,1.10000,0.90000,1.10000,0.90000
   280,'STIRLIN8    ',  69.0000,1,  55,  99,  17,1.02036, -20.1839,1.10000,0.90000,1.10000,0.90000
   282,'HEARTLAK    ', 240.0000,1,  27,  99,   1,1.10988, -14.7943,1.10000,0.90000,1.10000,0.90000
   283,'CANMORE7    ', 138.0000,1,  44,  99,  17,1.03261, -24.0110,1.10000,0.90000,1.10000,0.90000
   284,'BUTTE7      ', 138.0000,1,   4,  99,  17,1.01768, -25.8980,1.10000,0.90000,1.10000,0.90000
   285,'BAYMAG      ', 138.0000,1,  44,  99,  17,1.02892, -23.9186,1.10000,0.90000,1.10000,0.90000
   286,'ENCHANT7    ', 138.0000,1,  52,  99,  17,1.01025, -23.3137,1.10000,0.90000,1.10000,0.90000
   287,'DOME EB9    ',  13.8000,2,  48,  99,  17,1.02733, -26.8608,1.10000,0.90000,1.10000,0.90000
   288,'DOME EC9    ',  13.8000,2,  48,  99,  17,1.03142, -25.4428,1.10000,0.90000,1.10000,0.90000
   289,'DOME EM9    ',  13.8000,2,  48,  99,  17,1.03037, -25.7700,1.10000,0.90000,1.10000,0.90000
   290,'BALZ COG    ', 138.0000,1,   6,  99,  42,1.03020, -21.9056,1.10000,0.90000,1.10000,0.90000
   291,'CONRAD 7    ', 138.0000,1,  52,  99,  17,1.00426, -23.3749,1.10000,0.90000,1.10000,0.90000
   292,'JENNER7     ', 138.0000,1,  48,  99,  17,1.01587, -26.6870,1.10000,0.90000,1.10000,0.90000
   293,'STIRLIN7    ', 138.0000,1,  55,  99,  17,1.01534, -20.5290,1.10000,0.90000,1.10000,0.90000
   295,'DRYCREEK    ', 138.0000,1,  57,  99,  17,1.02291, -21.9629,1.10000,0.90000,1.10000,0.90000
   296,'GOOSEL7     ', 138.0000,1,  53,  99,  17,1.05296, -16.5645,1.10000,0.90000,1.10000,0.90000
   297,'WAINWRI7    ', 138.0000,1,  32,  99,  17,1.02576, -24.4686,1.10000,0.90000,1.10000,0.90000
   298,'ALB NEWS    ', 240.0000,1,  26,  99,  17,1.04919, -19.2053,1.10000,0.90000,1.10000,0.90000
   299,'SUND866S    ',  69.0000,1,  40,  99,  17,1.02353, -13.6989,1.10000,0.90000,1.10000,0.90000
   300,'KEEP320P    ',  69.0000,1,  40,  99,  17,1.02556, -13.6395,1.10000,0.90000,1.10000,0.90000
   301,'KEEPHIL8    ',  69.0000,1,  40,  99,  17,1.02354, -13.6989,1.10000,0.90000,1.10000,0.90000
   302,'MARION 7    ', 138.0000,1,  40,  99,  17,1.02544, -11.1524,1.10000,0.90000,1.10000,0.90000
   303,'STELCO 1    ', 138.0000,1,  60,  99,  17,1.03238, -15.0233,1.10000,0.90000,1.10000,0.90000
   304,'PLAMOND7    ', 138.0000,1,  27,  99,  17,1.04051, -20.3347,1.10000,0.90000,1.10000,0.90000
   305,'LAC LA 7    ', 138.0000,1,  27,  99,  17,1.03157, -19.5457,1.10000,0.90000,1.10000,0.90000
   306,'WINEFRE7    ', 138.0000,1,  27,  99,  17,1.03025, -17.4804,1.10000,0.90000,1.10000,0.90000
   308,'FLATLK-2    ', 138.0000,1,  27,  99,  17,1.05048, -20.6970,1.10000,0.90000,1.10000,0.90000
   309,'MCMILLA7    ', 138.0000,1,  61,  99,   1,1.08648, -12.8641,1.10000,0.90000,1.10000,0.90000
   310,'SPRAY  S    ', 138.0000,1,  44,  99,  17,1.03286, -23.8100,1.10000,0.90000,1.10000,0.90000
   311,'LEDUC1      ', 138.0000,1,  60,  99,  17,1.00904, -17.6795,1.10000,0.90000,1.10000,0.90000
   312,'E CROSS7    ', 138.0000,1,  57,  99,  17,1.03621, -20.8103,1.10000,0.90000,1.10000,0.90000
   313,'JOSEPH1     ', 240.0000,1,  33,  99,  17,1.03256, -14.1818,1.10000,0.90000,1.10000,0.90000
   314,'JOSEPH2     ', 138.0000,1,  33,  99,  17,1.03273, -14.7884,1.10000,0.90000,1.10000,0.90000
   315,'HUSSAR      ', 138.0000,1,  45,  99,  17,1.02364, -22.0476,1.10000,0.90000,1.10000,0.90000
   316,'LAURATP     ',  69.0000,1,  26,  99,  17,1.04419, -21.4317,1.10000,0.90000,1.10000,0.90000
   317,'CARSONA8    ',  69.0000,1,  26,  99,  17,1.04415, -21.4328,1.10000,0.90000,1.10000,0.90000
   318,'W CROSSF    ', 138.0000,1,  57,  99,  17,1.02445, -21.2477,1.10000,0.90000,1.10000,0.90000
   319,'COALSPU8    ',  69.0000,1,  29,  99,  17,1.00661, -18.1345,1.10000,0.90000,1.10000,0.90000
   320,'CHAPPIC7    ', 138.0000,1,   4,  99,  17,1.02162, -25.7790,1.10000,0.90000,1.10000,0.90000
   321,'HEARTLAK    ', 138.0000,1,  27,  99,   1,1.02782, -16.3999,1.10000,0.90000,1.10000,0.90000
   322,'CARSON 8    ',  69.0000,1,  26,  99,  17,1.04451, -21.2773,1.10000,0.90000,1.10000,0.90000
   323,'CADOMIN8    ',  69.0000,1,  29,  99,  17,1.00615, -18.1839,1.10000,0.90000,1.10000,0.90000
   324,'COALSPU7    ', 138.0000,1,  29,  99,  17,1.01066, -18.1030,1.10000,0.90000,1.10000,0.90000
   325,'PEGAS.L8    ',  69.0000,1,  26,  99,  17,1.04398, -21.3628,1.10000,0.90000,1.10000,0.90000
   326,'COAL VA7    ', 138.0000,1,  29,  99,  17,1.00705, -18.2888,1.10000,0.90000,1.10000,0.90000
   328,'MACLEOD1    ', 138.0000,1,  53,  99,  19,1.02025, -15.2070,1.10000,0.90000,1.10000,0.90000
   329,'POCATER7    ', 138.0000,1,  44,  99,  17,1.03119, -22.0653,1.10000,0.90000,1.10000,0.90000
   330,'P C BRA7    ', 138.0000,1,  30,  99,  17,1.00819, -20.1977,1.10000,0.90000,1.10000,0.90000
   331,'VIOL GR7    ', 138.0000,1,  30,  99,  17,1.00497, -17.1486,1.10000,0.90000,1.10000,0.90000
   332,'DVPL IA9    ',  13.8000,2,  30,  99,   4,1.04763, -13.7064,1.10000,0.90000,1.10000,0.90000
   333,'QUENSTWN    ', 138.0000,1,  45,  99,  17,1.02031, -22.2207,1.10000,0.90000,1.10000,0.90000