0,   100.00, 33, 0, 1, 60.00     / PSS(R)E-33.4    THU, JUN 27 2013   0:32
TASMO MODEL; OUTPUT GENERATED 2012-09-18 09:46:16
SWINGBUS 1520 FOR 2012LPBL-1:2013-09-01:1:203--1-0-0-0
     1,'JUDY515S    ',  69.0000,1,  26,  99,  17,1.05476,  -5.9288,1.10000,0.90000,1.10000,0.90000
     2,'MAYERTH     ', 138.0000,1,  40,  99,  17,1.02871,  -2.3069,1.10000,0.90000,1.10000,0.90000
     3,'COLINTO7    ', 138.0000,1,  27,  99,  17,1.02510,  -3.4301,1.10000,0.90000,1.10000,0.90000
     4,'WESTLOC7    ', 138.0000,1,  27,  99,  17,1.02837,  -1.2843,1.10000,0.90000,1.10000,0.90000
     5,'CLYDE  7    ', 138.0000,1,  27,  99,  17,1.02620,  -1.5368,1.10000,0.90000,1.10000,0.90000
     6,'DICKSOA9    ',   4.1600,1,  39,  99,   7,1.03718,  -6.1336,1.10000,0.90000,1.10000,0.90000
     7,'BOYLE  7    ', 138.0000,1,  27,  99,  17,1.02840,  -4.1498,1.10000,0.90000,1.10000,0.90000
     8,'WHI 3647    ', 138.0000,1,  26,  99,  17,1.03634,  -3.5846,1.10000,0.90000,1.10000,0.90000
     9,'WHITECO7    ', 138.0000,1,  26,  99,  17,1.03606,  -3.9557,1.10000,0.90000,1.10000,0.90000
    10,'WHITECO8    ',  69.0000,1,  26,  99,  17,1.05613,  -3.3997,1.10000,0.90000,1.10000,0.90000
    12,'FOX CREE    ', 138.0000,1,  24,  99,  17,1.03310,  -5.6107,1.10000,0.90000,1.10000,0.90000
    13,'KAYBOB 7    ', 138.0000,1,  24,  99,  17,1.01732,  -4.7530,1.10000,0.90000,1.10000,0.90000
    14,'WESGEN 9    ',  13.8000,2,  27,  99,   4,1.02500,   2.3477,1.10000,0.90000,1.10000,0.90000
    15,'MTN COA7    ', 138.0000,1,  29,  99,  17,1.00862,  -1.5932,1.10000,0.90000,1.10000,0.90000
    16,'FLATBUS7    ', 138.0000,1,  27,  99,  17,1.03176,  -0.6927,1.10000,0.90000,1.10000,0.90000
    17,'COLD CR7    ', 138.0000,1,  29,  99,  17,1.00508,  -1.8289,1.10000,0.90000,1.10000,0.90000
    18,'GULF RO7    ', 138.0000,1,  29,  99,  17,1.01498,  -1.3912,1.10000,0.90000,1.10000,0.90000
    19,'WESGEN T    ', 138.0000,1,  27,  99,  17,1.03312,  -0.5934,1.10000,0.90000,1.10000,0.90000
    20,'EDSON  7    ', 138.0000,1,  29,  99,  17,1.02536,  -1.0112,1.10000,0.90000,1.10000,0.90000
    21,'WESGEN 7    ', 138.0000,1,  27,  99,   4,1.03442,  -0.2368,1.10000,0.90000,1.10000,0.90000
    26,'ENTWIST7    ', 138.0000,1,  40,  99,  17,1.02134,  -0.5844,1.10000,0.90000,1.10000,0.90000
    27,'WABAMUN8    ',  69.0000,1,  40,  99,  17,1.03212,   1.9799,1.10000,0.90000,1.10000,0.90000
    31,'FINCAST7    ', 138.0000,1,  52,  99,  17,1.00770,  -6.0781,1.10000,0.90000,1.10000,0.90000
    32,'ONOWAY 8    ',  69.0000,1,  40,  99,  17,1.03270,   1.9509,1.10000,0.90000,1.10000,0.90000
    33,'BRAZEAA9    ',  13.2000,2,  30,  99,  17,1.02893,  -3.3065,1.10000,0.90000,1.10000,0.90000
    35,'LODGEPO7    ', 138.0000,1,  30,  99,  17,1.01398,  -2.3700,1.10000,0.90000,1.10000,0.90000
    36,'BRAZEAU7    ', 138.0000,1,  30,  99,  17,1.03321,  -2.6999,1.10000,0.90000,1.10000,0.90000
    37,'HRT EXP7    ', 138.0000,1,  32,  99,  25,1.03514,   1.7393,1.10000,0.90000,1.10000,0.90000
    38,'BRAZ OUT    ', 138.0000,1,  30,  99,  17,1.02914,  -3.2863,1.10000,0.90000,1.10000,0.90000
    39,'CYNTHIA7    ', 138.0000,1,  30,  99,  17,1.01570,  -3.5094,1.10000,0.90000,1.10000,0.90000
    40,'N CALDE7    ', 138.0000,1,  60,  99,  17,1.02693,   0.3114,1.10000,0.90000,1.10000,0.90000
    41,'N BARRH7    ', 138.0000,1,  40,  99,  17,1.03407,  -0.9417,1.10000,0.90000,1.10000,0.90000
    42,'AMOCO BR    ', 138.0000,1,  30,  99,  17,1.02346,  -4.2992,1.10000,0.90000,1.10000,0.90000
    43,'SCOTF_4     ', 138.0000,2,  33,  99,  29,1.03000,   0.2458,1.10000,0.90000,1.10000,0.90000
    44,'FT ASBN7    ', 138.0000,1,  40,  99,  17,1.04415,  -2.9191,1.10000,0.90000,1.10000,0.90000
    47,'SHERWOO7    ', 138.0000,1,  60,  99,  17,1.02081,   0.5022,1.10000,0.90000,1.10000,0.90000
    48,'DIAM SH7    ', 138.0000,1,  33,  99,  17,1.03069,   0.3375,1.10000,0.90000,1.10000,0.90000
    49,'KEYSTON7    ', 138.0000,1,  30,  99,  17,1.01474,   3.6806,1.10000,0.90000,1.10000,0.90000
    50,'RIVERSID    ', 138.0000,2,  33,  99, 211,1.02874,   0.2200,1.10000,0.90000,1.10000,0.90000
    51,'W PEMBI7    ', 138.0000,1,  30,  99,  17,1.01880,  -4.2816,1.10000,0.90000,1.10000,0.90000
    52,'BLUERIDG    ', 138.0000,1,  26,  99,  17,1.03142,  -3.5927,1.10000,0.90000,1.10000,0.90000
    53,'SANDYPT7    ', 138.0000,1,  48,  99,  17,1.02110,  -2.7787,1.10000,0.90000,1.10000,0.90000
    55,'GULF OI7    ', 138.0000,1,  60,  99,  17,1.02310,   0.7879,1.10000,0.90000,1.10000,0.90000
    56,'IPPL ED7    ', 138.0000,1,  60,  99,  17,1.02402,   0.8255,1.10000,0.90000,1.10000,0.90000
    57,'LAMOURE4    ', 240.0000,1,  33,  99,  17,1.02713,   1.6728,1.10000,0.90000,1.10000,0.90000
    58,'FORT SA7    ', 138.0000,1,  60,  99,  17,1.02840,   0.4423,1.10000,0.90000,1.10000,0.90000
    59,'REDWATE7    ', 138.0000,1,  33,  99,  17,1.01727,  -0.2131,1.10000,0.90000,1.10000,0.90000
    60,'BEAMER 7    ', 138.0000,1,  33,  99,  17,1.02517,   0.0610,1.10000,0.90000,1.10000,0.90000
    61,'UN CARB9    ', 138.0000,2,  33,  99, 191,1.03000,   0.5639,1.10000,0.90000,1.10000,0.90000
    62,'SHERRIT7    ', 138.0000,1,  33,  99,  17,1.02927,   0.4638,1.10000,0.90000,1.10000,0.90000
    63,'LAMOURE7    ', 138.0000,1,  33,  99,  17,1.03254,   0.6138,1.10000,0.90000,1.10000,0.90000
    64,'BANFF  7    ', 138.0000,1,  44,  99,  17,1.01926, -11.3833,1.10000,0.90000,1.10000,0.90000
    65,'BARDO  7    ', 138.0000,1,  31,  99,  17,1.01748,  -0.8051,1.10000,0.90000,1.10000,0.90000
    66,'IOL 737L    ', 138.0000,1,  60,  99,  17,1.02254,   0.7556,1.10000,0.90000,1.10000,0.90000
    67,'BRUDERH7    ', 138.0000,1,  33,  99,  17,1.03009,   0.0835,1.10000,0.90000,1.10000,0.90000
    68,'N HOLDE7    ', 138.0000,1,  56,  99,  17,1.02859,  -0.5045,1.10000,0.90000,1.10000,0.90000
    69,'IOL 738L    ', 138.0000,1,  60,  99,  17,1.01761,   0.4494,1.10000,0.90000,1.10000,0.90000
    70,'CAMROSE7    ', 138.0000,1,  31,  99,  17,1.00899,  -1.4364,1.10000,0.90000,1.10000,0.90000
    71,'JARROW 8    ',  69.0000,1,  32,  99,  17,1.05503,   0.8124,1.10000,0.90000,1.10000,0.90000
    72,'JARROW 7    ', 138.0000,1,  32,  99,  17,1.03684,   0.8336,1.10000,0.90000,1.10000,0.90000
    73,'HARDIST7    ', 138.0000,1,  32,  99,  17,1.03541,   1.7843,1.10000,0.90000,1.10000,0.90000
    74,'METIS647    ', 138.0000,1,  37,  99,  17,1.03625,   0.1547,1.10000,0.90000,1.10000,0.90000
    75,'HUGHEND7    ', 138.0000,1,  37,  99,  17,1.03081,   0.7106,1.10000,0.90000,1.10000,0.90000
    76,'IPPL ST7    ', 138.0000,1,  56,  99,  17,1.04673,   2.7048,1.10000,0.90000,1.10000,0.90000
    77,'WAINWRI8    ',  69.0000,1,  32,  99,  17,1.05634,   0.7018,1.10000,0.90000,1.10000,0.90000
    78,'SEDGEWI7    ', 138.0000,1,  32,  99,  17,1.04182,   3.5033,1.10000,0.90000,1.10000,0.90000
    79,'BUFFALO7    ', 138.0000,1,  32,  99,  17,1.03571,  -1.9724,1.10000,0.90000,1.10000,0.90000
    80,'BUCKLAK7    ', 138.0000,1,  30,  99,  17,1.00745,  -0.2181,1.10000,0.90000,1.10000,0.90000
    81,'BIGSTON4    ', 240.0000,1,  31,  99,  17,1.02548,   2.4334,1.10000,0.90000,1.10000,0.90000
    82,'CHEVRON7    ', 138.0000,1,  24,  99,  17,1.01705,  -4.7627,1.10000,0.90000,1.10000,0.90000
    83,'RBCUPIL7    ', 138.0000,1,  17,  99,  21,1.08533,  -5.8353,1.10000,0.90000,1.10000,0.90000
    85,'MILLAR 7    ', 138.0000,1,  26,  99,  17,1.01624,  -4.2248,1.10000,0.90000,1.10000,0.90000
    86,'PROVOST7    ', 138.0000,1,  37,  99,  17,1.02703,  -0.2180,1.10000,0.90000,1.10000,0.90000
    87,'METIS644    ', 240.0000,1,  37,  99,  17,1.06001,   1.6873,1.10000,0.90000,1.10000,0.90000
    88,'BICKERD7    ', 138.0000,1,  29,  99,  17,1.02591,  -0.4073,1.10000,0.90000,1.10000,0.90000
    89,'E EDMON7    ', 138.0000,1,  60,  99,  17,1.02479,   0.8660,1.10000,0.90000,1.10000,0.90000
    90,'BICKERD4    ', 240.0000,1,  29,  99,  17,1.08634,   1.4784,1.10000,0.90000,1.10000,0.90000
    91,'NISKU  7    ', 138.0000,1,  60,  99,  17,1.01335,  -1.4626,1.10000,0.90000,1.10000,0.90000
    93,'WETASKI7    ', 138.0000,1,  31,  99,  17,1.02084,  -1.1909,1.10000,0.90000,1.10000,0.90000
    94,'ERVICK 7    ', 138.0000,1,  31,  99,  17,1.01017,  -1.4715,1.10000,0.90000,1.10000,0.90000
    95,'PONOKA 7    ', 138.0000,1,  31,  99,  17,1.00743,  -2.9284,1.10000,0.90000,1.10000,0.90000
    96,'DEVON  7    ', 138.0000,1,  60,  99,  17,1.00703,  -1.6805,1.10000,0.90000,1.10000,0.90000
    97,'ECKVILL7    ', 138.0000,1,  35,  99,  17,1.02270,  -2.5722,1.10000,0.90000,1.10000,0.90000
    98,'RIMBEY 7    ', 138.0000,1,  35,  99,  17,1.01408,  -2.9978,1.10000,0.90000,1.10000,0.90000
    99,'BENALTO7    ', 138.0000,1,  35,  99,  17,1.02951,  -2.2453,1.10000,0.90000,1.10000,0.90000
   100,'ROCKY M7    ', 138.0000,1,  38,  99,  17,1.00531,  -4.3571,1.10000,0.90000,1.10000,0.90000
   101,'COOKING7    ', 138.0000,1,  60,  99,  17,1.01629,  -0.3069,1.10000,0.90000,1.10000,0.90000
   102,'BIGHORN1    ',  13.8000,2,  34,  99,  17,0.98487,  -1.9462,1.10000,0.90000,1.10000,0.90000
   103,'BIG HOR7    ', 138.0000,1,  34,  99,  17,1.00456,  -1.9462,1.10000,0.90000,1.10000,0.90000
   104,'STRACHA7    ', 138.0000,1,  38,  99,  17,1.00496,  -5.0687,1.10000,0.90000,1.10000,0.90000
   105,'PIGEON 7    ', 138.0000,1,  31,  99,  17,1.01408,  -1.3114,1.10000,0.90000,1.10000,0.90000
   106,'DEERLAN7    ', 138.0000,1,  33,  99,  17,1.02330,   0.2657,1.10000,0.90000,1.10000,0.90000
   107,'SUNDRE 7    ', 138.0000,1,  38,  99,  17,0.97868,  -7.0316,1.10000,0.90000,1.10000,0.90000
   108,'BIGHORN2    ',  13.8000,2,  34,  99,  17,0.97200,   2.4739,1.10000,0.90000,1.10000,0.90000
   109,'DEERLAN4    ', 240.0000,1,  33,  99,  17,1.04741,   0.9143,1.10000,0.90000,1.10000,0.90000
   110,'IPL EDM7    ', 138.0000,1,  60,  99,  17,1.02402,   0.8250,1.10000,0.90000,1.10000,0.90000
   111,'SANDHIL7    ', 138.0000,1,  48,  99,  17,1.02112,  -2.7917,1.10000,0.90000,1.10000,0.90000
   112,'SUNKEN7     ', 138.0000,1,  37,  99,  17,1.03613,   0.1573,1.10000,0.90000,1.10000,0.90000
   113,'BLACKFA7    ', 138.0000,1,  35,  99,  17,1.01130,  -3.5718,1.10000,0.90000,1.10000,0.90000
   114,'LACOMBE7    ', 138.0000,1,  35,  99,  17,1.00674,  -3.5191,1.10000,0.90000,1.10000,0.90000
   115,'S RED DE    ', 138.0000,1,  35,  99,  17,1.01673,  -3.3591,1.10000,0.90000,1.10000,0.90000
   116,'W LACOMB    ', 138.0000,1,  35,  99,  17,1.00875,  -3.4411,1.10000,0.90000,1.10000,0.90000
   117,'RED DE A    ', 138.0000,1,  35,  99,  17,1.01683,  -3.1915,1.10000,0.90000,1.10000,0.90000
   118,'RED DE B    ', 138.0000,1,  35,  99,  17,1.01683,  -3.1915,1.10000,0.90000,1.10000,0.90000
   119,'N RED D7    ', 138.0000,1,  35,  99,  17,1.01893,  -3.4562,1.10000,0.90000,1.10000,0.90000
   120,'INNISFA7    ', 138.0000,1,  39,  99,  17,1.00258,  -5.0458,1.10000,0.90000,1.10000,0.90000
   121,'OLDS   7    ', 138.0000,1,  39,  99,  17,0.98909,  -7.1240,1.10000,0.90000,1.10000,0.90000
   122,'MADDEN 7    ', 138.0000,1,  39,  99,  17,0.98916,  -8.9282,1.10000,0.90000,1.10000,0.90000
   123,'DIDSBURY    ', 138.0000,1,  39,  99,  17,0.98974,  -7.8659,1.10000,0.90000,1.10000,0.90000
   124,'HARMATT7    ', 138.0000,1,  39,  99,  17,0.98845,  -7.7968,1.10000,0.90000,1.10000,0.90000
   125,'YASAA7      ', 138.0000,1,  60,  99,  17,1.02355,   0.8101,1.10000,0.90000,1.10000,0.90000
   126,'SHELL H7    ', 138.0000,1,  39,  99,  17,0.98841,  -7.8748,1.10000,0.90000,1.10000,0.90000
   127,'BEDDING2    ', 138.0000,1,   6,  99,   3,1.03172,  -8.4368,1.10000,0.90000,1.10000,0.90000
   128,'ELLERSLI    ', 240.0000,1,  60,  99,  17,1.03295,   5.9458,1.10000,0.90000,1.10000,0.90000
   129,'SUND#1GN    ',  18.0000,2,  40,  99,  17,1.04177,  10.6835,1.10000,0.90000,1.10000,0.90000
   130,'SUND#3GN    ',  20.0000,2,  40,  99,  17,1.03000,  12.1617,1.10000,0.90000,1.10000,0.90000
   131,'SUNDANA8    ',  69.0000,1,  40,  99,  17,1.02315,   3.4886,1.10000,0.90000,1.10000,0.90000
   132,'SUNDANC7    ', 138.0000,1,  40,  99,  17,1.02963,   5.7909,1.10000,0.90000,1.10000,0.90000
   133,'WABAMUN4    ', 240.0000,1,  40,  99,  17,1.06878,   4.1634,1.10000,0.90000,1.10000,0.90000
   134,'WABAMUN7    ', 138.0000,1,  40,  99,  17,1.03380,   1.7017,1.10000,0.90000,1.10000,0.90000
   135,'SUNDANC4    ', 240.0000,1,  40,  99,  17,1.08259,   5.3118,1.10000,0.90000,1.10000,0.90000
   136,'E EDMON4    ', 240.0000,1,  60,  99,  17,1.02552,   4.7529,1.10000,0.90000,1.10000,0.90000
   137,'N CALDE4    ', 240.0000,1,  60,  99,  17,1.03275,   2.7219,1.10000,0.90000,1.10000,0.90000
   138,'N BARRH4    ', 240.0000,1,  40,  99,  17,1.09974,   0.6699,1.10000,0.90000,1.10000,0.90000
   141,'DALEHUR7    ', 138.0000,1,  29,  99,  17,1.00930,  -1.5488,1.10000,0.90000,1.10000,0.90000
   142,'KINGMAN7    ', 138.0000,1,  31,  99,  17,1.01356,  -1.0828,1.10000,0.90000,1.10000,0.90000
   144,'ALGAR  7    ', 138.0000,1,  61,  99,   1,1.06511,  -0.7986,1.10000,0.90000,1.10000,0.90000
   147,'GAETZ  4    ', 240.0000,1,  35,  99,  17,1.03394,  -1.2513,1.10000,0.90000,1.10000,0.90000
   148,'GAETZ  7    ', 138.0000,1,  35,  99,  17,1.02334,  -3.3411,1.10000,0.90000,1.10000,0.90000
   150,'WILLESD4    ', 240.0000,1,  30,  99,  17,1.04801,  -1.0319,1.10000,0.90000,1.10000,0.90000
   151,'BRAZ#1 9    ',  13.8000,2,  30,  99,  17,0.98000,  -0.9329,1.10000,0.90000,1.10000,0.90000
   152,'RED DEE4    ', 240.0000,1,  35,  99,  17,1.04409,  -1.2917,1.10000,0.90000,1.10000,0.90000
   153,'BRAZEAU4    ', 240.0000,1,  30,  99,  17,1.04181,  -1.3945,1.10000,0.90000,1.10000,0.90000
   154,'BRAZ#2 9    ',  13.8000,2,  30,  99,  17,0.97221,  -1.3945,1.10000,0.90000,1.10000,0.90000
   155,'BENALTO4    ', 240.0000,1,  35,  99,  17,1.05681,  -0.0785,1.10000,0.90000,1.10000,0.90000
   156,'E CROSS4    ', 240.0000,1,  57,  99,  17,1.04033,  -4.8788,1.10000,0.90000,1.10000,0.90000
   157,'COCHIN 8    ',  69.0000,1,  32,  99, 241,1.05628,   0.6992,1.10000,0.90000,1.10000,0.90000
   158,'LANGDON2    ', 500.0000,1,   6,  99,  17,1.06331,  -4.7074,1.10000,0.90000,1.10000,0.90000
   159,'LANGDON4    ', 240.0000,1,   6,  99,  17,1.05400,  -5.2923,1.10000,0.90000,1.10000,0.90000
   160,'JANET  4    ', 240.0000,1,   6,  99,  17,1.04060,  -6.1424,1.10000,0.90000,1.10000,0.90000
   161,'SARCEE 4    ', 240.0000,1,   6,  99,  17,1.03531,  -6.9364,1.10000,0.90000,1.10000,0.90000
   162,'E CALGAR    ', 240.0000,1,   6,  99,  17,1.02698,  -6.7898,1.10000,0.90000,1.10000,0.90000
   163,'SAGITAW4    ', 240.0000,1,  26,  99,  17,1.05990,  -1.8471,1.10000,0.90000,1.10000,0.90000
   164,'SAGITAW7    ', 138.0000,1,  26,  99,  17,1.03790,  -3.2385,1.10000,0.90000,1.10000,0.90000
   165,'PEIGAN 4    ', 240.0000,1,  53,  99, 191,1.05535,  -2.3870,1.10000,0.90000,1.10000,0.90000
   166,'PEIGAN 7    ', 138.0000,1,  53,  99, 191,1.01916,   0.0035,1.10000,0.90000,1.10000,0.90000
   167,'N LETHB4    ', 240.0000,1,  54,  99,  17,1.05892,  -3.2108,1.10000,0.90000,1.10000,0.90000
   168,'SUNSHIN8    ',  69.0000,1,  44,  99,  17,0.98268, -16.5961,1.10000,0.90000,1.10000,0.90000
   169,'CAN CEM7    ', 138.0000,1,  44,  99,  17,1.01920, -10.8668,1.10000,0.90000,1.10000,0.90000
   170,'COCHRAN7    ', 138.0000,1,  44,  99,  17,1.00103, -10.6637,1.10000,0.90000,1.10000,0.90000
   171,'SEEBE  7    ', 138.0000,1,  44,  99, 191,1.01957, -10.4391,1.10000,0.90000,1.10000,0.90000
   172,'HORS GEN    ',  12.0000,2,  44,  99,  17,1.02500,  -8.4254,1.10000,0.90000,1.10000,0.90000
   173,'BRETV A7    ', 138.0000,1,  60,  99,  17,1.02309,   0.7888,1.10000,0.90000,1.10000,0.90000
   174,'SPRAY G1    ',  13.2000,2,  44,  99,  17,1.04663,  -7.9419,1.10000,0.90000,1.10000,0.90000
   175,'CASCADE7    ', 138.0000,1,  44,  99, 194,1.02143, -11.2714,1.10000,0.90000,1.10000,0.90000
   176,'CASCADE9    ',  13.2000,2,  44,  99, 194,1.03647, -11.0403,1.10000,0.90000,1.10000,0.90000
   177,'AIRDRIE     ', 138.0000,1,  57,  99,  17,1.01234,  -7.9580,1.10000,0.90000,1.10000,0.90000
   178,'BANFF  8    ',  69.0000,1,  44,  99,  17,0.98638, -16.3943,1.10000,0.90000,1.10000,0.90000
   179,'MARIANA7    ', 138.0000,1,  61,  99,   1,1.06647,  -0.7688,1.10000,0.90000,1.10000,0.90000
   180,'GHOST  7    ', 138.0000,1,  44,  99,  17,1.00758, -10.3504,1.10000,0.90000,1.10000,0.90000
   181,'GHOST A9    ',  13.2000,2,  44,  99,  17,1.00000,  -9.4874,1.10000,0.90000,1.10000,0.90000
   183,'BEARSPWB    ',  13.2000,2,  44,  99,  17,1.04333,  -9.6711,1.10000,0.90000,1.10000,0.90000
   184,'BEARSPAW    ', 138.0000,1,  44,  99,  17,1.00796, -10.1229,1.10000,0.90000,1.10000,0.90000
   187,'BEDDING1    ', 240.0000,1,   6,  99,   3,1.03533,  -6.5265,1.10000,0.90000,1.10000,0.90000
   188,'ANG COCA    ',  25.0000,1,  44,  99,  17,1.03897, -12.1536,1.10000,0.90000,1.10000,0.90000
   189,'ANG COCB    ',  13.8000,2,  44,  99,  17,0.99261, -14.3303,1.10000,0.90000,1.10000,0.90000
   190,'SPRAY G2    ',  13.2000,2,  44,  99,  17,1.02596, -10.6992,1.10000,0.90000,1.10000,0.90000
   191,'ANG COCH    ', 138.0000,1,  44,  99,  17,0.99907, -10.8831,1.10000,0.90000,1.10000,0.90000
   192,'NELSON L    ', 138.0000,1,  31,  99,  17,1.00410,  -3.0859,1.10000,0.90000,1.10000,0.90000
   193,'KANANAS7    ', 138.0000,1,  44,  99,  17,1.02006, -10.4089,1.10000,0.90000,1.10000,0.90000
   194,'LAKE LO8    ',  69.0000,1,  44,  99,  17,0.95444, -17.1367,1.10000,0.90000,1.10000,0.90000
   195,'RUNDLE S    ', 138.0000,1,  44,  99,  17,1.02548, -10.7966,1.10000,0.90000,1.10000,0.90000
   196,'KANANAS9    ',  12.0000,2,  44,  99,  17,1.03398,  -8.5102,1.10000,0.90000,1.10000,0.90000
   197,'RUNDLE G    ',  13.8000,2,  44,  99,  17,1.04761,  -9.6171,1.10000,0.90000,1.10000,0.90000
   198,'BALZAC 7    ', 138.0000,1,   6,  99,  17,1.03132,  -8.4269,1.10000,0.90000,1.10000,0.90000
   199,'SHELL J7    ', 138.0000,1,  44,  99,  17,1.00534, -10.3503,1.10000,0.90000,1.10000,0.90000
   201,'JUMPPND7    ', 138.0000,1,  44,  99,  17,1.01343, -10.2721,1.10000,0.90000,1.10000,0.90000
   202,'SARCEE 7    ', 138.0000,1,   6,  99,  17,1.01185,  -9.3636,1.10000,0.90000,1.10000,0.90000
   203,'SARCEE C    ',  13.8000,1,   6,  99,  17,1.05112,  -9.4388,1.10000,0.90000,1.10000,0.90000
   204,'MCMILLA4    ', 240.0000,1,  61,  99,   1,1.11764,   0.5923,1.10000,0.90000,1.10000,0.90000
   205,'AMOCO R7    ', 138.0000,1,  38,  99,  17,0.97986,  -6.6059,1.10000,0.90000,1.10000,0.90000
   207,'JANET  7    ', 138.0000,1,   6,  99,  17,1.01589,  -8.4742,1.10000,0.90000,1.10000,0.90000
   208,'ENMX2S 7    ', 138.0000,1,   6,  99,   3,1.01251,  -9.6490,1.10000,0.90000,1.10000,0.90000
   209,'BRETONA1    ', 138.0000,1,  60,  99,  17,1.01969,   0.3699,1.10000,0.90000,1.10000,0.90000
   210,'SJPC_TP     ', 138.0000,1,  44,  99,  17,1.00555, -10.3413,1.10000,0.90000,1.10000,0.90000
   211,'MOUNT A7    ', 138.0000,1,  44,  99,  17,1.02378, -10.6311,1.10000,0.90000,1.10000,0.90000
   213,'HAIGRIVE    ', 138.0000,1,  17,  99,   1,1.09962,  -7.7544,1.10000,0.90000,1.10000,0.90000
   214,'POCATEA9    ',  13.8000,2,  44,  99,  17,1.00347,  -9.6098,1.10000,0.90000,1.10000,0.90000
   215,'TEX.W.P7    ', 138.0000,1,  30,  99,  17,1.01385,  -3.3341,1.10000,0.90000,1.10000,0.90000
   216,'BARRIER7    ', 138.0000,1,  44,  99,  17,1.02172, -10.5176,1.10000,0.90000,1.10000,0.90000
   217,'SJP_CRK     ', 138.0000,1,  44,  99,  17,1.00550, -10.3434,1.10000,0.90000,1.10000,0.90000
   218,'BLACKMUD    ', 138.0000,1,  60,  99,  17,1.01013,  -1.5917,1.10000,0.90000,1.10000,0.90000
   219,'KILLARN7    ', 138.0000,1,  37,  99,  17,1.02431,  -3.4081,1.10000,0.90000,1.10000,0.90000
   220,'HAYTER 7    ', 138.0000,1,  37,  99,  17,1.00932,  -4.0141,1.10000,0.90000,1.10000,0.90000
   221,'CRR-W1      ', 240.0000,1,  53,  99,  58,1.04771,  -1.8624,1.10000,0.90000,1.10000,0.90000
   222,'BARRIER9    ',  13.2000,2,  44,  99,  17,1.03000,  -9.9772,1.10000,0.90000,1.10000,0.90000
   223,'PINCHER8    ',  69.0000,1,  53,  99,  17,1.01997,  -1.2959,1.10000,0.90000,1.10000,0.90000
   224,'PINCHER7    ', 138.0000,1,  53,  99,  17,1.05081,  -1.0872,1.10000,0.90000,1.10000,0.90000
   225,'WARE JCT    ', 240.0000,1,  47,  99,  17,1.07530,   0.7459,1.10000,0.90000,1.10000,0.90000
   226,'DRYWOOD8    ',  69.0000,1,  55,  99,  17,1.02421,  -2.4054,1.10000,0.90000,1.10000,0.90000
   227,'SHELL WA    ',  69.0000,1,  55,  99,  17,1.00692,  -2.7064,1.10000,0.90000,1.10000,0.90000
   228,'YARROW 8    ',  69.0000,1,  55,  99,  17,1.02411,  -2.4082,1.10000,0.90000,1.10000,0.90000
   229,'170AL-TA    ', 138.0000,1,  53,  99,  17,1.05386,  -2.7226,1.10000,0.90000,1.10000,0.90000
   230,'OLDMAN D    ', 138.0000,1,  53,  99,   1,1.05413,  -0.5942,1.10000,0.90000,1.10000,0.90000
   231,'N SHELL8    ',  69.0000,1,  55,  99,  17,1.00563,  -2.7616,1.10000,0.90000,1.10000,0.90000
   232,'COLEMAN7    ', 138.0000,1,  53,  99,  17,1.04796,  -4.4883,1.10000,0.90000,1.10000,0.90000
   233,'DRYWOOD7    ', 138.0000,1,  55,  99,  17,1.04045,  -1.3059,1.10000,0.90000,1.10000,0.90000
   234,'CASTRIV1    ', 138.0000,1,  53,  99,  44,1.05043,  -1.2835,1.10000,0.90000,1.10000,0.90000
   235,'STAVELY7    ', 138.0000,1,  49,  99,  17,0.99813,  -6.6607,1.10000,0.90000,1.10000,0.90000
   236,'HIGH RI8    ',  69.0000,1,  46,  99,  17,1.04914, -10.8069,1.10000,0.90000,1.10000,0.90000
   237,'FORT MA7    ', 138.0000,1,  53,  99,  17,1.00362,  -4.7487,1.10000,0.90000,1.10000,0.90000
   238,'BLACK D7    ', 138.0000,1,  46,  99,  17,0.98819, -10.2541,1.10000,0.90000,1.10000,0.90000
   239,'OKOTOKS7    ', 138.0000,1,  46,  99,  17,0.99888,  -9.8019,1.10000,0.90000,1.10000,0.90000
   240,'MAGCAN 7    ', 138.0000,1,  46,  99,  17,1.00052,  -9.9620,1.10000,0.90000,1.10000,0.90000
   241,'BLACK D8    ',  69.0000,1,  46,  99,  17,1.01270, -11.6075,1.10000,0.90000,1.10000,0.90000
   242,'HIGH RI7    ', 138.0000,1,  46,  99,  17,0.99437,  -9.9205,1.10000,0.90000,1.10000,0.90000
   243,'HARTELL7    ', 138.0000,1,  46,  99,  17,0.98968, -10.1861,1.10000,0.90000,1.10000,0.90000
   244,'VULCAN 7    ', 138.0000,1,  49,  99,  17,1.00131,  -7.4239,1.10000,0.90000,1.10000,0.90000
   245,'GLENWOO8    ',  69.0000,1,  55,  99, 191,1.01564,  -2.6692,1.10000,0.90000,1.10000,0.90000
   246,'SPRING 8    ',  69.0000,1,  55,  99,  17,1.01496,  -2.9680,1.10000,0.90000,1.10000,0.90000
   247,'CAVALIER    ', 138.0000,1,  45,  99,  42,1.03229,  -9.2332,1.10000,0.90000,1.10000,0.90000
   248,'MAHKESES    ', 138.0000,2,  28,  99,  36,1.04000,   0.0912,1.10000,0.90000,1.10000,0.90000
   249,'878S        ', 138.0000,1,  19,  99,   1,1.08284, -11.8162,1.10000,0.90000,1.10000,0.90000
   250,'DUCHESS7    ', 138.0000,1,  47,  99,  17,1.01288,  -3.9573,1.10000,0.90000,1.10000,0.90000
   251,'GARDN1      ', 138.0000,1,  55,  99,  10,1.01129,  -3.7308,1.10000,0.90000,1.10000,0.90000
   252,'CARSELA7    ', 138.0000,1,  45,  99,  17,1.00968,  -7.4551,1.10000,0.90000,1.10000,0.90000
   253,'BLACKIE7    ', 138.0000,1,  45,  99,  17,1.00743,  -8.0421,1.10000,0.90000,1.10000,0.90000
   254,'GLEICHE7    ', 138.0000,1,  45,  99, 191,1.02122,  -8.6818,1.10000,0.90000,1.10000,0.90000
   255,'CHINOOK9    ',  34.5000,2,  53,  99,  17,0.98386,  -0.3604,1.10000,0.90000,1.10000,0.90000
   256,'BROOKS 7    ', 138.0000,1,  47,  99,  17,1.01819,  -3.6967,1.10000,0.90000,1.10000,0.90000
   257,'LIMESTO7    ', 138.0000,1,  38,  99,  17,0.96659,  -7.2666,1.10000,0.90000,1.10000,0.90000
   258,'ELLERSLI    ', 500.0000,1,  60,  99,  17,1.04466,  12.6895,1.10000,0.90000,1.10000,0.90000
   259,'STRATHM7    ', 138.0000,1,  45,  99,  17,1.02956,  -9.4572,1.10000,0.90000,1.10000,0.90000
   260,'JENNER 4    ', 240.0000,1,  48,  99,  17,1.07385,  -1.0038,1.10000,0.90000,1.10000,0.90000
   262,'DOME EM4    ', 240.0000,1,  48,  99,  17,1.07269,  -2.1600,1.10000,0.90000,1.10000,0.90000
   263,'EMP LIQ7    ', 138.0000,1,  48,  99,  17,1.02060,  -2.8163,1.10000,0.90000,1.10000,0.90000
   264,'COWLEY 8    ',  69.0000,1,  53,  99,  17,1.03003,  -0.5891,1.10000,0.90000,1.10000,0.90000
   265,'US WIND9    ',  34.5000,2,  53,  99,  17,0.98376,  -0.4632,1.10000,0.90000,1.10000,0.90000
   266,'EMPRESA7    ', 138.0000,1,  48,  99,  17,1.02142,  -2.7849,1.10000,0.90000,1.10000,0.90000
   267,'DOME EM7    ', 138.0000,1,  48,  99,  17,1.02127,  -2.7706,1.10000,0.90000,1.10000,0.90000
   268,'DOME EA9    ',  13.8000,2,  48,  99,  17,1.02050,  -3.1656,1.10000,0.90000,1.10000,0.90000
   269,'BURDETT7    ', 138.0000,1,  52,  99,  17,1.00398,  -6.7556,1.10000,0.90000,1.10000,0.90000
   270,'SUFFIEL7    ', 138.0000,1,   4,  99,  17,1.00116,  -6.7421,1.10000,0.90000,1.10000,0.90000
   271,'BULLS H7    ', 138.0000,1,   4,  99,  17,1.02047,  -6.6507,1.10000,0.90000,1.10000,0.90000
   272,'TABER  7    ', 138.0000,1,  52,  99,  17,1.01120,  -6.2042,1.10000,0.90000,1.10000,0.90000
   274,'VAUXHAL7    ', 138.0000,1,  52,  99,  17,1.00426,  -5.9203,1.10000,0.90000,1.10000,0.90000
   275,'TILLEY 7    ', 138.0000,1,  47,  99,  17,1.01198,  -5.6348,1.10000,0.90000,1.10000,0.90000
   276,'W BROOK7    ', 138.0000,1,  47,  99,  17,1.02107,  -3.3361,1.10000,0.90000,1.10000,0.90000
   277,'WESTFLD7    ', 138.0000,1,  52,  99,  17,1.00308,  -6.8169,1.10000,0.90000,1.10000,0.90000
   278,'WARNER 8    ',  69.0000,1,  55,  99,  17,0.98468,  -4.6273,1.10000,0.90000,1.10000,0.90000
   279,'STAVELEY    ', 138.0000,1,  49,  99,  17,1.00059,  -6.5382,1.10000,0.90000,1.10000,0.90000
   280,'STIRLIN8    ',  69.0000,1,  55,  99,  17,1.01746,  -4.4720,1.10000,0.90000,1.10000,0.90000
   282,'HEARTLAK    ', 240.0000,1,  27,  99,   1,1.11098,  -0.2115,1.10000,0.90000,1.10000,0.90000
   283,'CANMORE7    ', 138.0000,1,  44,  99,  17,1.02492, -10.9414,1.10000,0.90000,1.10000,0.90000
   284,'BUTTE7      ', 138.0000,1,   4,  99,  17,1.01707,  -6.7978,1.10000,0.90000,1.10000,0.90000
   285,'BAYMAG      ', 138.0000,1,  44,  99,  17,1.02089, -10.8805,1.10000,0.90000,1.10000,0.90000
   286,'ENCHANT7    ', 138.0000,1,  52,  99,  17,1.00334,  -5.3885,1.10000,0.90000,1.10000,0.90000
   287,'DOME EB9    ',  13.8000,2,  48,  99,  17,1.01821,  -4.3145,1.10000,0.90000,1.10000,0.90000
   288,'DOME EC9    ',  13.8000,2,  48,  99,  17,1.02194,  -2.8167,1.10000,0.90000,1.10000,0.90000
   289,'DOME EM9    ',  13.8000,2,  48,  99,  17,1.02103,  -3.0890,1.10000,0.90000,1.10000,0.90000
   290,'BALZ COG    ', 138.0000,1,   6,  99,  42,1.03263,  -8.3779,1.10000,0.90000,1.10000,0.90000
   291,'CONRAD 7    ', 138.0000,1,  52,  99,  17,1.00298,  -5.7756,1.10000,0.90000,1.10000,0.90000
   292,'JENNER7     ', 138.0000,1,  48,  99,  17,1.01064,  -5.5510,1.10000,0.90000,1.10000,0.90000
   293,'STIRLIN7    ', 138.0000,1,  55,  99,  17,1.00899,  -4.5674,1.10000,0.90000,1.10000,0.90000
   295,'DRYCREEK    ', 138.0000,1,  57,  99,  17,1.02104,  -8.2884,1.10000,0.90000,1.10000,0.90000
   296,'GOOSEL7     ', 138.0000,1,  53,  99,  17,1.05090,  -1.0742,1.10000,0.90000,1.10000,0.90000
   297,'WAINWRI7    ', 138.0000,1,  32,  99,  17,1.02198,   0.5504,1.10000,0.90000,1.10000,0.90000
   298,'ALB NEWS    ', 240.0000,1,  26,  99,  17,1.04685,  -2.7331,1.10000,0.90000,1.10000,0.90000
   299,'SUND866S    ',  69.0000,1,  40,  99,  17,1.02249,   2.9190,1.10000,0.90000,1.10000,0.90000
   300,'KEEP320P    ',  69.0000,1,  40,  99,  17,1.02476,   2.9855,1.10000,0.90000,1.10000,0.90000
   301,'KEEPHIL8    ',  69.0000,1,  40,  99,  17,1.02250,   2.9189,1.10000,0.90000,1.10000,0.90000
   302,'MARION 7    ', 138.0000,1,  40,  99,  17,1.02654,   6.0834,1.10000,0.90000,1.10000,0.90000
   303,'STELCO 1    ', 138.0000,1,  60,  99,  17,1.02599,   0.8140,1.10000,0.90000,1.10000,0.90000
   304,'PLAMOND7    ', 138.0000,1,  27,  99,  17,1.02849,  -4.1479,1.10000,0.90000,1.10000,0.90000
   305,'LAC LA 7    ', 138.0000,1,  27,  99,  17,1.02363,  -3.3841,1.10000,0.90000,1.10000,0.90000
   306,'WINEFRE7    ', 138.0000,1,  27,  99,  17,1.03075,  -0.7315,1.10000,0.90000,1.10000,0.90000
   308,'FLATLK-2    ', 138.0000,1,  27,  99,  17,1.03514,  -4.4918,1.10000,0.90000,1.10000,0.90000
   309,'MCMILLA7    ', 138.0000,1,  61,  99,   1,1.08216,   0.0267,1.10000,0.90000,1.10000,0.90000
   310,'SPRAY  S    ', 138.0000,1,  44,  99,  17,1.02596, -10.6992,1.10000,0.90000,1.10000,0.90000
   311,'LEDUC1      ', 138.0000,1,  60,  99,  17,1.00098,  -1.9979,1.10000,0.90000,1.10000,0.90000
   312,'E CROSS7    ', 138.0000,1,  57,  99,  17,1.01813,  -6.4843,1.10000,0.90000,1.10000,0.90000
   313,'JOSEPH1     ', 240.0000,1,  33,  99,  17,1.02885,   1.1267,1.10000,0.90000,1.10000,0.90000
   314,'JOSEPH2     ', 138.0000,1,  33,  99,  17,1.03100,   0.3245,1.10000,0.90000,1.10000,0.90000
   315,'HUSSAR      ', 138.0000,1,  45,  99,  17,1.03390,  -9.9165,1.10000,0.90000,1.10000,0.90000
   316,'LAURATP     ',  69.0000,1,  26,  99,  17,1.04256,  -5.1739,1.10000,0.90000,1.10000,0.90000
   317,'CARSONA8    ',  69.0000,1,  26,  99,  17,1.04245,  -5.1778,1.10000,0.90000,1.10000,0.90000
   318,'W CROSSF    ', 138.0000,1,  57,  99,  17,1.01142,  -7.0878,1.10000,0.90000,1.10000,0.90000
   319,'COALSPU8    ',  69.0000,1,  29,  99,  17,1.00972,  -1.5279,1.10000,0.90000,1.10000,0.90000
   320,'CHAPPIC7    ', 138.0000,1,   4,  99,  17,1.01842,  -5.9149,1.10000,0.90000,1.10000,0.90000
   321,'HEARTLAK    ', 138.0000,1,  27,  99,   1,1.02838,  -1.0650,1.10000,0.90000,1.10000,0.90000
   322,'CARSON 8    ',  69.0000,1,  26,  99,  17,1.04279,  -5.0015,1.10000,0.90000,1.10000,0.90000
   323,'CADOMIN8    ',  69.0000,1,  29,  99,  17,1.00925,  -1.5773,1.10000,0.90000,1.10000,0.90000
   324,'COALSPU7    ', 138.0000,1,  29,  99,  17,1.01377,  -1.4964,1.10000,0.90000,1.10000,0.90000
   325,'PEGAS.L8    ',  69.0000,1,  26,  99,  17,1.04224,  -5.0974,1.10000,0.90000,1.10000,0.90000
   326,'COAL VA7    ', 138.0000,1,  29,  99,  17,1.00972,  -1.7005,1.10000,0.90000,1.10000,0.90000
   328,'MACLEOD1    ', 138.0000,1,  53,  99,  19,1.01876,   0.9349,1.10000,0.90000,1.10000,0.90000
   329,'POCATER7    ', 138.0000,1,  44,  99,  17,1.02825,  -9.6686,1.10000,0.90000,1.10000,0.90000
   330,'P C BRA7    ', 138.0000,1,  30,  99,  17,1.01112,  -4.0895,1.10000,0.90000,1.10000,0.90000