0,   100.00          / PSS/E-30.3    SAT, AUG 11 2007  18:07
                               100.0

     2,'BUS002      ', 500.0000,1,     0.000,     0.000,   1,   1,1.00000,   0.0000,   1
     3,'BUS003      ', 345.0000,1,     0.000,     0.000,   1,   1,1.00000,   0.0000,   1
     4,'BUS004      ',  20.0000,2,     0.000,     0.000,   1,   1,1.05000,   0.0000,   1
     5,'BUS005      ', 345.0000,1,     0.000,     0.000,   1,   1,1.00000,   0.0000,   1
     6,'BUS006      ',  22.0000,2,     0.000,     0.000,   1,   1,1.05500,   0.0000,   1
     7,'BUS007      ', 500.0000,1,     0.000, -1000.000,   1,   1,1.00000,   0.0000,   1
     8,'BUS008      ', 345.0000,1,     0.000,   -80.000,   1,   1,1.00000,   0.0000,   1
     9,'BUS009      ',  22.0000,2,     0.000,     0.000,   1,   1,1.05000,   0.0000,   1
    10,'BUS010      ', 230.0000,1,     0.000,     0.000,   1,   1,1.00000,   0.0000,   1
    11,'BUS011      ',  20.0000,2,     0.000,     0.000,   1,   1,1.02000,   0.0000,   1
    12,'BUS012      ', 500.0000,1,     0.000,  -190.000,   1,   1,1.00000,   0.0000,   1
    13,'BUS013      ',  26.0000,2,     0.000,     0.000,   1,   1,1.00000,   0.0000,   1
    14,'BUS014      ', 500.0000,1,     0.000,  -391.000,   1,   1,1.00000,   0.0000,   1
    15,'BUS015      ',  24.0000,2,     0.000,     0.000,   1,   1,1.00000,   0.0000,   1
    16,'BUS016      ', 500.0000,1,     0.000,  -700.000,   1,   1,1.00000,   0.0000,   1
    17,'BUS017      ', 345.0000,1,     0.000,   390.000,   1,   1,1.00000,   0.0000,   1
    18,'BUS018      ',  22.0000,2,     0.000,     0.000,   1,   1,1.03000,   0.0000,   1
    19,'BUS019      ', 500.0000,1,     0.000,  -427.000,   1,   1,1.00000,   0.0000,   1
    20,'BUS020      ', 500.0000,1,     0.000,     0.000,   1,   1,1.00000,   0.0000,   1
    21,'BUS021      ', 500.0000,1,     0.000,     0.000,   1,   1,1.00000,   0.0000,   1
    22,'BUS022      ', 500.0000,1,     0.000,     0.000,   1,   1,1.00000,   0.0000,   1
    23,'BUS023      ', 500.0000,1,     0.000,     0.000,   1,   1,1.00000,   0.0000,   1
    24,'BUS024      ', 500.0000,1,     0.000,     0.000,   1,   1,1.00000,   0.0000,   1
    25,'BUS025      ', 500.0000,1,     0.000,     0.000,   1,   1,1.00000,   0.0000,   1
    26,'BUS026      ', 500.0000,1,     0.000,     0.000,   1,   1,1.00000,   0.0000,   1
    27,'BUS027      ', 500.0000,1,     0.000,     0.000,   1,   1,1.00000,   0.0000,   1
    28,'BUS028      ', 500.0000,1,     0.000,     0.000,   1,   1,1.00000,   0.0000,   1
    29,'BUS029      ', 500.0000,1,     0.000,     0.000,   1,   1,1.00000,   0.0000,   1
    30,'BUS030      ',  20.0000,2,     0.000,     0.000,   1,   1,1.00000,   0.0000,   1
    31,'BUS031      ', 500.0000,1,     0.000,     0.000,   1,   1,1.00000,   0.0000,   1
    32,'BUS032      ', 500.0000,1,     0.000,     0.000,   1,   1,1.00000,   0.0000,   1
    33,'BUS033      ', 230.0000,1,     0.000,     0.000,   1,   1,1.00000,   0.0000,   1
    34,'BUS034      ', 230.0000,1,     0.000,     0.000,   1,   1,1.00000,   0.0000,   1
    35,'BUS035      ',  20.0000,2,     0.000,     0.000,   1,   1,1.02000,   0.0000,   1
    36,'BUS036      ',  22.0000,2,     0.000,     0.000,   1,   1,1.05000,   0.0000,   1
    37,'BUS037      ', 500.0000,1,     0.000,   200.000,   1,   1,1.00000,   0.0000,   1
    38,'BUS038      ', 500.0000,1,     0.000,     0.000,   1,   1,1.00000,   0.0000,   1
    39,'BUS039      ', 230.0000,1,     0.000,     0.000,   1,   1,1.00000,   0.0000,   1
    40,'BUS040      ',  18.0000,2,     0.000,     0.000,   1,   1,1.05000,   0.0000,   1
    41,'BUS041      ', 230.0000,1,     0.000,     0.000,   1,   1,1.00000,   0.0000,   1
    42,'BUS042      ', 230.0000,1,     0.000,     0.000,   1,   1,1.00000,   0.0000,   1
    43,'BUS043      ',  18.0000,2,     0.000,     0.000,   1,   1,1.05000,   0.0000,   1
    44,'BUS044      ', 345.0000,1,     0.000,   430.000,   1,   1,1.00000,   0.0000,   1
    45,'BUS045      ',  26.0000,2,     0.000,     0.000,   1,   1,1.05000,   0.0000,   1
    46,'BUS046      ', 230.0000,1,     0.000,     0.000,   1,   1,1.00000,   0.0000,   1
    47,'BUS047      ',  11.5000,2,     0.000,     0.000,   1,   1,1.05000,   0.0000,   1
    48,'BUS048      ', 230.0000,1,     0.000,     0.000,   1,   1,1.00000,   0.0000,   1
    49,'BUS049      ', 500.0000,1,     0.000,   -80.000,   1,   1,1.00000,   0.0000,   1
    50,'BUS050      ', 230.0000,1,     0.000,     0.000,   1,   1,1.00000,   0.0000,   1
    51,'BUS051      ', 138.0000,1,     0.000,     0.000,   1,   1,1.00000,   0.0000,   1
    52,'BUS052      ', 287.0000,1,     0.000,     0.000,   1,   1,1.00000,   0.0000,   1
    53,'BUS053      ', 287.0000,1,     0.000,     0.000,   1,   1,1.00000,   0.0000,   1
    54,'BUS054      ', 230.0000,1,     0.000,     0.000,   1,   1,1.00000,   0.0000,   1
    55,'BUS055      ', 230.0000,1,     0.000,     0.000,   1,   1,1.00000,   0.0000,   1
    56,'BUS056      ', 500.0000,1,     0.000,     0.000,   1,   1,1.00000,   0.0000,   1
    57,'BUS057      ', 230.0000,1,     0.000,     0.000,   1,   1,1.00000,   0.0000,   1
    58,'BUS058      ', 230.0000,1,     0.000,     0.000,   1,   1,1.00000,   0.0000,   1
    59,'BUS059      ', 230.0000,1,     0.000,     0.000,   1,   1,1.00000,   0.0000,   1
    60,'BUS060      ', 230.0000,1,     0.000,  2146.000,   1,   1,1.00000,   0.0000,   1
    61,'BUS061      ', 230.0000,1,     0.000,     0.000,   1,   1,1.00000,   0.0000,   1
    62,'BUS062      ', 230.0000,1,     0.000,     0.000,   1,   1,1.00000,   0.0000,   1
    63,'BUS063      ', 287.0000,1,     0.000,  -108.000,   1,   1,1.00000,   0.0000,   1
    64,'BUS064      ', 500.0000,1,     0.000,     0.000,   1,   1,1.00000,   0.0000,   1
    65,'BUS065      ',  20.0000,2,     0.000,     0.000,   1,   1,1.00000,   0.0000,   1
    66,'BUS066      ', 500.0000,1,     0.000,     0.000,   1,   1,1.00000,   0.0000,   1
    67,'BUS067      ', 115.0000,1,     0.000,     0.000,   1,   1,1.00000,   0.0000,   1
    68,'BUS068      ', 230.0000,1,     0.000,   576.850,   1,   1,1.00000,   0.0000,   1
    69,'BUS069      ', 500.0000,1,     0.000,     0.000,   1,   1,1.00000,   0.0000,   1
    70,'BUS070      ',  13.8000,2,     0.000,     0.000,   1,   1,1.00000,   0.0000,   1
    71,'BUS071      ', 230.0000,1,     0.000,   500.000,   1,   1,1.00000,   0.0000,   1
    72,'BUS072      ', 500.0000,1,     0.000,   400.000,   1,   1,1.00000,   0.0000,   1
    73,'BUS073      ', 500.0000,1,     0.000,     0.000,   1,   1,1.00000,   0.0000,   1
    74,'BUS074      ', 500.0000,1,     0.000,     0.000,   1,   1,1.00000,   0.0000,   1
    75,'BUS075      ', 500.0000,1,     0.000,     0.000,   1,   1,1.00000,   0.0000,   1
    76,'BUS076      ', 500.0000,1,     0.000,  1019.300,   1,   1,1.00000,   0.0000,   1
    77,'BUS077      ',  13.8000,3,     0.000,     0.000,   1,   1,1.00000,   0.0000,   1
    78,'BUS078      ', 500.0000,1,     0.000,  1000.000,   1,   1,1.00000,   0.0000,   1
    79,'BUS079      ',  20.0000,2,     0.000,     0.000,   1,   1,1.02000,   0.0000,   1
    80,'BUS080      ', 500.0000,1,     0.000,  1000.000,   1,   1,1.00000,   0.0000,   1
    81,'BUS081      ', 500.0000,1,     0.000,   -20.000,   1,   1,1.00000,   0.0000,   1
    82,'BUS082      ', 500.0000,1,     0.000,  -650.000,   1,   1,1.00000,   0.0000,   1
    83,'BUS083      ', 500.0000,1,     0.000,  -110.000,   1,   1,1.00000,   0.0000,   1
    84,'BUS084      ', 500.0000,1,     0.000,  -700.000,   1,   1,1.00000,   0.0000,   1
    85,'BUS085      ', 345.0000,1,     0.000,  -500.000,   1,   1,1.00000,   0.0000,   1
    86,'BUS086      ', 500.0000,1,     0.000,     0.000,   1,   1,1.00000,   0.0000,   1
    87,'BUS087      ', 500.0000,1,     0.000,     0.000,   1,   1,1.00000,   0.0000,   1
    88,'BUS088      ', 500.0000,1,     0.000,     0.000,   1,   1,1.00000,   0.0000,   1
    89,'BUS089      ', 500.0000,1,     0.000,     0.000,   1,   1,1.00000,   0.0000,   1
    90,'BUS090      ', 500.0000,1,     0.000,     0.000,   1,   1,1.00000,   0.0000,   1
    91,'BUS091      ', 500.0000,1,     0.000,     0.000,   1,   1,1.00000,   0.0000,   1
    92,'BUS092      ', 500.0000,1,     0.000,     0.000,   1,   1,1.00000,   0.0000,   1
    93,'BUS093      ', 500.0000,1,     0.000,     0.000,   1,   1,1.00000,   0.0000,   1
    94,'BUS094      ', 500.0000,1,     0.000,     0.000,   1,   1,1.00000,   0.0000,   1
    95,'BUS095      ', 500.0000,1,     0.000,     0.000,   1,   1,1.00000,   0.0000,   1
    96,'BUS096      ', 500.0000,1,     0.000,     0.000,   1,   1,1.00000,   0.0000,   1
    97,'BUS097      ', 500.0000,1,     0.000,     0.000,   1,   1,1.00000,   0.0000,   1
    98,'BUS098      ', 500.0000,1,     0.000,     0.000,   1,   1,1.00000,   0.0000,   1
    99,'BUS099      ', 500.0000,1,     0.000,     0.000,   1,   1,1.00000,   0.0000,   1
   100,'BUS100      ', 200.0000,1,     0.000,     0.000,   1,   1,1.00000,   0.0000,   1
   101,'BUS101      ', 200.0000,1,     0.000,   200.000,   1,   1,1.00000,   0.0000,   1
   102,'BUS102      ', 500.0000,1,     0.000,     0.000,   1,   1,1.00000,   0.0000,   1
   103,'BUS103      ',  25.0000,2,     0.000,     0.000,   1,   1,1.00000,   0.0000,   1
   104,'BUS104      ', 500.0000,1,     0.000,   -91.000,   1,   1,1.00000,   0.0000,   1
   105,'BUS105      ', 200.0000,1,     0.000,     0.000,   1,   1,1.00000,   0.0000,   1
   106,'BUS106      ', 200.0000,1,     0.000,     0.000,   1,   1,1.00000,   0.0000,   1
   107,'BUS107      ', 500.0000,1,     0.000,     0.000,   1,   1,1.00000,   0.0000,   1
   108,'BUS108      ', 500.0000,1,     0.000,  -427.000,   1,   1,1.00000,   0.0000,   1
   109,'BUS109      ', 200.0000,1,     0.000,  -330.000,   1,   1,1.00000,   0.0000,   1
   110,'BUS110      ', 500.0000,1,     0.000,     0.000,   1,   1,1.00000,   0.0000,   1
   111,'BUS111      ', 500.0000,1,     0.000,     0.000,   1,   1,1.00000,   0.0000,   1
   112,'BUS112      ',  20.0000,2,     0.000,     0.000,   1,   1,1.00000,   0.0000,   1
   113,'BUS113      ', 200.0000,1,     0.000,   -50.000,   1,   1,1.00000,   0.0000,   1
   114,'BUS114      ', 500.0000,1,     0.000,   -91.000,   1,   1,1.00000,   0.0000,   1
   115,'BUS115      ', 500.0000,1,     0.000,   -91.000,   1,   1,1.00000,   0.0000,   1
   116,'BUS116      ',  20.0000,2,     0.000,     0.000,   1,   1,1.00000,   0.0000,   1
   117,'BUS117      ', 200.0000,1,     0.000,  -400.000,   1,   1,1.00000,   0.0000,   1
   118,'BUS118      ',  20.0000,2,     0.000,     0.000,   1,   1,1.03000,   0.0000,   1
   119,'BUS119      ', 500.0000,1,     0.000,  1700.000,   1,   1,1.00000,   0.0000,   1
   120,'BUS120      ', 500.0000,1,     0.000,     0.000,   1,   1,1.00000,   0.0000,   1
   121,'BUS121      ', 500.0000,1,     0.000,     0.000,   1,   1,1.00000,   0.0000,   1
   122,'BUS122      ', 500.0000,1,     0.000,     0.000,   1,   1,1.00000,   0.0000,   1
   123,'BUS123      ', 500.0000,1,     0.000,     0.000,   1,   1,1.00000,   0.0000,   1
   124,'BUS124      ', 500.0000,1,     0.000,     0.000,   1,   1,1.00000,   0.0000,   1
   125,'BUS125      ', 500.0000,1,     0.000,     0.000,   1,   1,1.00000,   0.0000,   1
   126,'BUS126      ', 500.0000,1,     0.000,     0.000,   1,   1,1.00000,   0.0000,   1
   127,'BUS127      ', 500.0000,1,     0.000,     0.000,   1,   1,1.00000,   0.0000,   1
   128,'BUS128      ', 500.0000,1,     0.000,     0.000,   1,   1,1.00000,   0.0000,   1
   129,'BUS129      ', 500.0000,1,     0.000,     0.000,   1,   1,1.00000,   0.0000,   1
   130,'BUS130      ', 500.0000,1,     0.000,     0.000,   1,   1,1.00000,   0.0000,   1
   131,'BUS131      ', 500.0000,1,     0.000,     0.000,   1,   1,1.00000,   0.0000,   1
   132,'BUS132      ', 500.0000,1,     0.000,     0.000,   1,   1,1.00000,   0.0000,   1
   133,'BUS133      ', 500.0000,1,     0.000,     0.000,   1,   1,1.00000,   0.0000,   1
   134,'BUS134      ', 500.0000,1,     0.000,     0.000,   1,   1,1.00000,   0.0000,   1
   135,'BUS135      ', 500.0000,1,     0.000,     0.000,   1,   1,1.00000,   0.0000,   1
   136,'BUS136      ', 500.0000,1,     0.000,     0.000,   1,   1,1.00000,   0.0000,   1
   137,'BUS137      ', 230.0000,1,     0.000,     0.000,   1,   1,1.00000,   0.0000,   1
   138,'BUS138      ',  20.0000,2,     0.000,     0.000,   1,   1,1.02000,   0.0000,   1
   139,'BUS139      ', 500.0000,1,     0.000,  -800.000,   1,   1,1.00000,   0.0000,   1
   140,'BUS140      ',  20.0000,2,     0.000,     0.000,   1,   1,1.05000,   0.0000,   1
   141,'BUS141      ', 230.0000,1,     0.000,     0.000,   1,   1,1.00000,   0.0000,   1
   142,'BUS142      ', 500.0000,1,     0.000,     0.000,   1,   1,1.00000,   0.0000,   1
   143,'BUS143      ', 230.0000,1,     0.000,     0.000,   1,   1,1.00000,   0.0000,   1
   144,'BUS144      ',  20.0000,2,     0.000,     0.000,   1,   1,1.05000,   0.0000,   1
   145,'BUS145      ', 500.0000,1,     0.000,   600.000,   1,   1,1.00000,   0.0000,   1
   146,'BUS146      ', 230.0000,1,     0.000,     0.000,   1,   1,1.00000,   0.0000,   1
   147,'BUS147      ', 500.0000,1,     0.000,  -196.000,   1,   1,1.00000,   0.0000,   1
   148,'BUS148      ',  22.0000,2,     0.000,     0.000,   1,   1,1.05000,   0.0000,   1
   149,'BUS149      ',  20.0000,2,     0.000,     0.000,   1,   1,1.02000,   0.0000,   1
   150,'BUS150      ', 230.0000,1,     0.000,     0.000,   1,   1,1.00000,   0.0000,   1
   151,'BUS151      ', 500.0000,1,     0.000,     0.000,   1,   1,1.00000,   0.0000,   1
   152,'BUS152      ', 500.0000,1,     0.000,     0.000,   1,   1,1.00000,   0.0000,   1
   153,'BUS153      ', 500.0000,1,     0.000,     0.000,   1,   1,1.00000,   0.0000,   1
   154,'BUS154      ', 230.0000,1,     0.000,   500.000,   1,   1,1.00000,   0.0000,   1
   155,'BUS155      ', 345.0000,1,     0.000,   -60.000,   1,   1,1.00000,   0.0000,   1
   156,'BUS156      ', 345.0000,1,     0.000,     0.000,   1,   1,1.00000,   0.0000,   1
   157,'BUS157      ', 230.0000,1,     0.000,     0.000,   1,   1,1.00000,   0.0000,   1
   158,'BUS158      ', 345.0000,1,     0.000,  -220.000,   1,   1,1.00000,   0.0000,   1
   159,'BUS159      ',  20.0000,2,     0.000,     0.000,   1,   1,1.05500,   0.0000,   1
   160,'BUS160      ', 345.0000,1,     0.000,     0.000,   1,   1,1.00000,   0.0000,   1
   161,'BUS161      ', 230.0000,1,     0.000,     0.000,   1,   1,1.00000,   0.0000,   1
   162,'BUS162      ',  20.0000,2,     0.000,     0.000,   1,   1,1.00000,   0.0000,   1
   163,'BUS163      ', 345.0000,1,     0.000,   -18.000,   1,   1,1.00000,   0.0000,   1
   164,'BUS164      ', 345.0000,1,     0.000,     0.000,   1,   1,1.00000,   0.0000,   1
   165,'BUS165      ', 345.0000,1,     0.000,     0.000,   1,   1,1.00000,   0.0000,   1
   166,'BUS166      ', 345.0000,1,     0.000,   -50.000,   1,   1,1.00000,   0.0000,   1
   167,'BUS167      ', 345.0000,1,     0.000,     0.000,   1,   1,1.00000,   0.0000,   1
   168,'BUS168      ', 500.0000,1,     0.000,     0.000,   1,   1,1.00000,   0.0000,   1
   169,'BUS169      ', 500.0000,1,     0.000,     0.000,   1,   1,1.00000,   0.0000,   1
   170,'BUS170      ', 500.0000,1,     0.000,     0.000,   1,   1,1.00000,   0.0000,   1
   171,'BUS171      ', 500.0000,1,     0.000,     0.000,   1,   1,1.00000,   0.0000,   1
   172,'BUS172      ', 500.0000,1,     0.000,     0.000,   1,   1,1.00000,   0.0000,   1
   173,'BUS173      ', 500.0000,1,     0.000,     0.000,   1,   1,1.00000,   0.0000,   1
   174,'BUS174      ', 500.0000,1,     0.000,     0.000,   1,   1,1.00000,   0.0000,   1
   175,'BUS175      ', 500.0000,1,     0.000,     0.000,   1,   1,1.00000,   0.0000,   1
   176,'BUS176      ', 500.0000,1,     0.000,     0.000,   1,   1,1.00000,   0.0000,   1
   177,'BUS177      ', 500.0000,1,     0.000,     0.000,   1,   1,1.00000,   0.0000,   1
   178,'BUS178      ', 500.0000,1,     0.000,     0.000,   1,   1,1.00000,   0.0000,   1
   179,'BUS179      ', 500.0000,1,     0.000,     0.000,   1,   1,1.00000,   0.0000,   1
   180,'BUS180      ', 500.0000,1,     0.000,  -220.000,   1,   1,1.00000,   0.0000,   1
   181,'BUS181      ', 500.0000,1,     0.000,     0.000,   1,   1,1.00000,   0.0000,   1
   182,'BUS182      ', 500.0000,1,     0.000,     0.000,   1,   1,1.00000,   0.0000,   1
   183,'BUS183      ', 500.0000,1,     0.000,   250.000,   1,   1,1.00000,   0.0000,   1
   184,'BUS184      ', 230.0000,1,     0.000,     0.000,   1,   1,1.00000,   0.0000,   1
   185,'BUS185      ', 230.0000,1,     0.000,     0.000,   1,   1,1.00000,   0.0000,   1
   186,'BUS186      ', 345.0000,1,     0.000,  -400.000,   1,   1,1.00000,   0.0000,   1
   187,'BUS187      ', 230.0000,1,     0.000,     0.000,   1,   1,1.00000,   0.0000,   1
   188,'BUS188      ', 230.0000,1,     0.000,     0.000,   1,   1,1.00000,   0.0000,   1
   189,'BUS189      ', 230.0000,1,     0.000,     0.000,   1,   1,1.00000,   0.0000,   1
   190,'BUS190      ', 345.0000,1,     0.000,  -100.000,   1,   1,1.00000,   0.0000,   1
   191,'BUS191      ', 345.0000,1,     0.000,     0.000,   1,   1,1.00000,   0.0000,   1
   192,'BUS192      ', 345.0000,1,     0.000,     0.000,   1,   1,1.00000,   0.0000,   1
   193,'BUS193      ', 230.0000,1,     0.000,     0.000,   1,   1,1.00000,   0.0000,   1
   194,'BUS194      ', 230.0000,1,     0.000,     0.000,   1,   1,1.00000,   0.0000,   1
   195,'BUS195      ', 345.0000,1,     0.000,     0.000,   1,   1,1.00000,   0.0000,   1
   196,'BUS196      ', 500.0000,1,     0.000,     0.000,   1,   1,1.00000,   0.0000,   1
   197,'BUS197      ', 500.0000,1,     0.000,     0.000,   1,   1,1.00000,   0.0000,   1
   198,'BUS198      ',  13.8000,2,     0.000,     0.000,   1,   1,1.00000,   0.0000,   1
   199,'BUS199      ',  26.0000,2,     0.000,     0.000,   1,   1,1.05000,   0.0000,   1
   200,'BUS200      ', 345.0000,1,     0.000,  -200.000,   1,   1,1.00000,   0.0000,   1
   201,'BUS201      ', 500.0000,1,     0.000,     0.000,   1,   1,1.00000,   0.0000,   1
0 / END OF BUS DATA, BEGIN LOAD DATA
     2,'BL',1,   1,   1,  1750.000,   -56.000,     0.000,     0.000,     0.000,     0.000,   1
     4,'BL',1,   1,   1,   100.000,     0.000,     0.000,     0.000,     0.000,     0.000,   1
     5,'BL',1,   1,   1,  2350.000,  -100.000,     0.000,     0.000,     0.000,     0.000,   1
     6,'BL',1,   1,   1,   100.000,     0.000,     0.000,     0.000,     0.000,     0.000,   1
     8,'BL',1,   1,   1,   239.000,    20.000,     0.000,     0.000,     0.000,     0.000,   1
     9,'BL',1,   1,   1,   100.000,     0.000,     0.000,     0.000,     0.000,     0.000,   1
    10,'BL',1,   1,   1,   139.700,    23.800,     0.000,     0.000,     0.000,     0.000,   1
    11,'BL',1,   1,   1,   100.000,     0.000,     0.000,     0.000,     0.000,     0.000,   1
    12,'BL',1,   1,   1,    90.000,    70.000,     0.000,     0.000,     0.000,     0.000,   1
    13,'BL',1,   1,   1,   100.000,     0.000,     0.000,     0.000,     0.000,     0.000,   1
    15,'BL',1,   1,   1,   100.000,     0.000,     0.000,     0.000,     0.000,     0.000,   1
    16,'BL',1,   1,   1,   793.400,   207.000,     0.000,     0.000,     0.000,     0.000,   1
    17,'BL',1,   1,   1,   840.000,     5.000,     0.000,     0.000,     0.000,     0.000,   1
    18,'BL',1,   1,   1,   100.000,     0.000,     0.000,     0.000,     0.000,     0.000,   1
    19,'BL',1,   1,   1,   617.000,   120.000,     0.000,     0.000,     0.000,     0.000,   1
    30,'BL',1,   1,   1,   100.000,     0.000,     0.000,     0.000,     0.000,     0.000,   1
    31,'BL',1,   1,   1,  4400.000,  1000.000,     0.000,     0.000,     0.000,     0.000,   1
    34,'BL',1,   1,   1,  3600.000,   700.000,     0.000,     0.000,     0.000,     0.000,   1
    35,'BL',1,   1,   1,   100.000,     0.000,     0.000,     0.000,     0.000,     0.000,   1
    36,'BL',1,   1,   1,   100.000,     0.000,     0.000,     0.000,     0.000,     0.000,   1
    37,'BL',1,   1,   1, -1862.000,   971.000,     0.000,     0.000,     0.000,     0.000,   1
    40,'BL',1,   1,   1,   100.000,     0.000,     0.000,     0.000,     0.000,     0.000,   1
    41,'BL',1,   1,   1,   135.000,    27.000,     0.000,     0.000,     0.000,     0.000,   1
    43,'BL',1,   1,   1,   100.000,     0.000,     0.000,     0.000,     0.000,     0.000,   1
    44,'BL',1,   1,   1,  2053.000,   907.100,     0.000,     0.000,     0.000,     0.000,   1
    45,'BL',1,   1,   1,   100.000,     0.000,     0.000,     0.000,     0.000,     0.000,   1
    46,'BL',1,   1,   1,   -72.800,   -17.000,     0.000,     0.000,     0.000,     0.000,   1
    47,'BL',1,   1,   1,   100.000,     0.000,     0.000,     0.000,     0.000,     0.000,   1
    48,'BL',1,   1,   1,   121.000,    25.000,     0.000,     0.000,     0.000,     0.000,   1
    50,'BL',1,   1,   1,   320.000,    65.000,     0.000,     0.000,     0.000,     0.000,   1
    51,'BL',1,   1,   1,   237.200,   -63.200,     0.000,     0.000,     0.000,     0.000,   1
    54,'BL',1,   1,   1,   138.000,    28.000,     0.000,     0.000,     0.000,     0.000,   1
    55,'BL',1,   1,   1,   807.800,   132.100,     0.000,     0.000,     0.000,     0.000,   1
    57,'BL',1,   1,   1,   117.000,    24.000,     0.000,     0.000,     0.000,     0.000,   1
    58,'BL',1,   1,   1,   121.000,    25.000,     0.000,     0.000,     0.000,     0.000,   1
    59,'BL',1,   1,   1,   887.700,    -6.200,     0.000,     0.000,     0.000,     0.000,   1
    60,'BL',1,   1,   1, -2771.000,  1654.000,     0.000,     0.000,     0.000,     0.000,   1
    61,'BL',1,   1,   1,   401.000,    80.600,     0.000,     0.000,     0.000,     0.000,   1
    62,'BL',1,   1,   1,   205.200,    17.600,     0.000,     0.000,     0.000,     0.000,   1
    63,'BL',1,   1,   1,  -129.000,    32.200,     0.000,     0.000,     0.000,     0.000,   1
    65,'BL',1,   1,   1,   100.000,     0.000,     0.000,     0.000,     0.000,     0.000,   1
    66,'BL',1,   1,   1,  1700.000,   300.000,     0.000,     0.000,     0.000,     0.000,   1
    67,'BL',1,   1,   1,   160.000,    31.250,     0.000,     0.000,     0.000,     0.000,   1
    68,'BL',1,   1,   1,   -67.500,   160.000,     0.000,     0.000,     0.000,     0.000,   1
    69,'BL',1,   1,   1,   -44.200,    22.000,     0.000,     0.000,     0.000,     0.000,   1
    70,'BL',1,   1,   1,   100.000,     0.000,     0.000,     0.000,     0.000,     0.000,   1
    71,'BL',1,   1,   1,  2137.000,  1381.000,     0.000,     0.000,     0.000,     0.000,   1
    73,'BL',1,   1,   1,     0.000,     0.000,     0.000,     0.000,     0.000,     0.000,   1
    75,'BL',1,   1,   1,  1284.000,   234.000,     0.000,     0.000,     0.000,     0.000,   1
    76,'BL',1,   1,   1,  3200.000,  1100.000,     0.000,     0.000,     0.000,     0.000,   1
    77,'BL',1,   1,   1,   100.000,     0.000,     0.000,     0.000,     0.000,     0.000,   1
    78,'BL',1,   1,   1,  3500.000,   600.000,     0.000,     0.000,     0.000,     0.000,   1
    79,'BL',1,   1,   1,   100.000,     0.000,     0.000,     0.000,     0.000,     0.000,   1
    80,'BL',1,   1,   1,  4000.000,   300.000,     0.000,     0.000,     0.000,     0.000,   1
    82,'BL',1,   1,   1,   -66.600,   -97.000,     0.000,     0.000,     0.000,     0.000,   1
    83,'BL',1,   1,   1,  -339.000,  -119.000,     0.000,     0.000,     0.000,     0.000,   1
    85,'BL',1,   1,   1,   610.000,  -414.000,     0.000,     0.000,     0.000,     0.000,   1
   100,'BL',1,   1,   1,   -43.300,    20.000,     0.000,     0.000,     0.000,     0.000,   1
   101,'BL',1,   1,   1,  1210.400,   323.000,     0.000,     0.000,     0.000,     0.000,   1
   102,'BL',1,   1,   1,    50.000,    25.000,     0.000,     0.000,     0.000,     0.000,   1
   103,'BL',1,   1,   1,   100.000,     0.000,     0.000,     0.000,     0.000,     0.000,   1
   104,'BL',1,   1,   1,   305.000,    -7.600,     0.000,     0.000,     0.000,     0.000,   1
   105,'BL',1,   1,   1,    27.500,    -0.100,     0.000,     0.000,     0.000,     0.000,   1
   106,'BL',1,   1,   1,     8.010,     0.000,     0.000,     0.000,     0.000,     0.000,   1
   107,'BL',1,   1,   1,   265.000,    14.000,     0.000,     0.000,     0.000,     0.000,   1
   108,'BL',1,   1,   1,    55.600,  -329.000,     0.000,     0.000,     0.000,     0.000,   1
   109,'BL',1,   1,   1,  1777.600,   232.600,     0.000,     0.000,     0.000,     0.000,   1
   110,'BL',1,   1,   1,    40.000,    21.500,     0.000,     0.000,     0.000,     0.000,   1
   111,'BL',1,   1,   1,  -189.000,    61.500,     0.000,     0.000,     0.000,     0.000,   1
   112,'BL',1,   1,   1,   100.000,     0.000,     0.000,     0.000,     0.000,     0.000,   1
   113,'BL',1,   1,   1,   148.000,     0.000,     0.000,     0.000,     0.000,     0.000,   1
   115,'BL',1,   1,   1,    -0.700,   118.500,     0.000,     0.000,     0.000,     0.000,   1
   116,'BL',1,   1,   1,   100.000,     0.000,     0.000,     0.000,     0.000,     0.000,   1
   117,'BL',1,   1,   1,   884.000,    54.800,     0.000,     0.000,     0.000,     0.000,   1
   118,'BL',1,   1,   1,   100.000,     0.000,     0.000,     0.000,     0.000,     0.000,   1
   119,'BL',1,   1,   1,  4661.000,  3091.000,     0.000,     0.000,     0.000,     0.000,   1
   136,'BL',1,   1,   1,   856.000,    19.600,     0.000,     0.000,     0.000,     0.000,   1
   137,'BL',1,   1,   1,   175.000,    18.000,     0.000,     0.000,     0.000,     0.000,   1
   138,'BL',1,   1,   1,   100.000,     0.000,     0.000,     0.000,     0.000,     0.000,   1
   139,'BL',1,   1,   1,   902.300,   -11.400,     0.000,     0.000,     0.000,     0.000,   1
   140,'BL',1,   1,   1,   100.000,     0.000,     0.000,     0.000,     0.000,     0.000,   1
   141,'BL',1,   1,   1,  3191.000,   630.000,     0.000,     0.000,     0.000,     0.000,   1
   142,'BL',1,   1,   1,   204.200,   -28.200,     0.000,     0.000,     0.000,     0.000,   1
   143,'BL',1,   1,   1,   377.400,    64.500,     0.000,     0.000,     0.000,     0.000,   1
   144,'BL',1,   1,   1,   100.000,     0.000,     0.000,     0.000,     0.000,     0.000,   1
   145,'BL',1,   1,   1,  3098.000,  1189.000,     0.000,     0.000,     0.000,     0.000,   1
   148,'BL',1,   1,   1,   100.000,     0.000,     0.000,     0.000,     0.000,     0.000,   1
   149,'BL',1,   1,   1,   100.000,     0.000,     0.000,     0.000,     0.000,     0.000,   1
   150,'BL',1,   1,   1,  3118.000,    78.000,     0.000,     0.000,     0.000,     0.000,   1
   151,'BL',1,   1,   1,  1230.000,    72.800,     0.000,     0.000,     0.000,     0.000,   1
   152,'BL',1,   1,   1,   406.000,    41.000,     0.000,     0.000,     0.000,     0.000,   1
   154,'BL',1,   1,   1,  1066.000,   -10.800,     0.000,     0.000,     0.000,     0.000,   1
   155,'BL',1,   1,   1,   457.700,    81.700,     0.000,     0.000,     0.000,     0.000,   1
   156,'BL',1,   1,   1,    33.900,    11.900,     0.000,     0.000,     0.000,     0.000,   1
   157,'BL',1,   1,   1,   148.000,    -7.900,     0.000,     0.000,     0.000,     0.000,   1
   158,'BL',1,   1,   1,   116.100,    38.400,     0.000,     0.000,     0.000,     0.000,   1
   159,'BL',1,   1,   1,   100.000,     0.000,     0.000,     0.000,     0.000,     0.000,   1
   160,'BL',1,   1,   1,   -62.000,    12.800,     0.000,     0.000,     0.000,     0.000,   1
   161,'BL',1,   1,   1,   255.000,   100.000,     0.000,     0.000,     0.000,     0.000,   1
   162,'BL',1,   1,   1,   100.000,     0.000,     0.000,     0.000,     0.000,     0.000,   1
   164,'BL',1,   1,   1,    31.600,    11.500,     0.000,     0.000,     0.000,     0.000,   1
   165,'BL',1,   1,   1,   141.200,    71.400,     0.000,     0.000,     0.000,     0.000,   1
   166,'BL',1,   1,   1,   379.000,   -43.000,     0.000,     0.000,     0.000,     0.000,   1
   167,'BL',1,   1,   1,   185.000,    78.500,     0.000,     0.000,     0.000,     0.000,   1
   188,'BL',1,   1,   1,   300.000,    60.000,     0.000,     0.000,     0.000,     0.000,   1
   196,'BL',1,   1,   1,  2000.000,   100.000,     0.000,     0.000,     0.000,     0.000,   1
   197,'BL',1,   1,   1,  1000.000,   300.000,     0.000,     0.000,     0.000,     0.000,   1
   198,'BL',1,   1,   1,   100.000,     0.000,     0.000,     0.000,     0.000,     0.000,   1
   199,'BL',1,   1,   1,   100.000,     0.000,     0.000,     0.000,     0.000,     0.000,   1
0 / END OF LOAD DATA, BEGIN GENERATOR DATA
     4,'1 ',   800.000,   104.262,   300.000,  -300.000,1.05000,     0,   914.000,   0.00000,   1.00000,   0.00000,   0.00000,1.00000,1,  100.0,   822.600,     0.000,   1,1.0000
     6,'1 ',  1048.000,    39.045,   400.000,  -400.000,1.05500,     0,  1488.000,   0.00000,   1.00000,   0.00000,   0.00000,1.00000,1,  100.0,  1339.200,     0.000,   1,1.0000
     9,'1 ',  2160.000,   575.612,   700.000,  -500.000,1.05000,     0,  2458.000,   0.00000,   1.00000,   0.00000,   0.00000,1.00000,1,  100.0,  2212.200,     0.000,   1,1.0000
    11,'1 ',  2050.000,    22.973,   900.000,  -900.000,1.02000,     0,  3000.000,   0.00000,   1.00000,   0.00000,   0.00000,1.00000,1,  100.0,  2700.000,     0.000,   1,1.0000
    13,'1 ',  1690.000,   335.572,   700.000,  -280.000,1.00000,     0,  3540.000,   0.00000,   1.00000,   0.00000,   0.00000,1.00000,1,  100.0,  3186.000,     0.000,   1,1.0000
    15,'1 ',  2640.000,  1235.097,  1300.000,  -900.000,1.00000,     0,  3118.000,   0.00000,   1.00000,   0.00000,   0.00000,1.00000,1,  100.0,  2806.200,     0.000,   1,1.0000
    18,'1 ',   962.000,   236.814,   300.000,  -300.000,1.03000,     0,  2054.000,   0.00000,   1.00000,   0.00000,   0.00000,1.00000,1,  100.0,  1848.600,     0.000,   1,1.0000