1   'GENSAL'   1   8.96   0.04   0.06   23.64   0.0   0.146   0.0969   0.0608   0.04   0.0336   0.0   0.0   /
2   'GENROU'   1   6.0   0.033   0.54   0.078   6.4   0.0   0.8958   0.8645   0.1189   0.1969   0.089   0.0521   0.0   0.0   /
3   'GENROU'   1   5.89   0.033   0.6   0.07   3.01   0.0   1.313   1.258   0.1813   0.25   0.107   0.0742   0.0   0.0   /

1   'IEEET1'   1   0.06   20.0   0.2   1.172        
 -0.0   0.0   0.314   0.063   0.35        
 0   3.0   0.104   4.0   0.293   /

1   'IEEEG3'   1   0.04   1.0   18.0000   -18.0000    180.0000   0   0.05   0.31   5.0    1.0000   0.5   1.0   1.5   1   /

2   'IEEET1'   1   0.06   20.0   0.2   1.172        
 -0.0   0.0   0.314   0.063   0.35        
 0   3.0   0.104   4.0   0.293   /

3   'IEEET1'   1   0.06   20.0   0.2   1.172        
 -0.0   0.0   0.314   0.063   0.35        
 0   3.0   0.104   4.0   0.293   /

2   'IEEEG1' 1  0 0  20.833	0	0	0.1	0.2	-0.625	1.0417	0	0.25	0.26	0	7.5	0.27	0	0.4	0.47	0	0	0	0 /

3   'IEEEG1' 1  0 0  25	    0   0.1	0.2	0.1	-1	   0.9979	0	0.25	0.4	   0	0.5	0.6	    0	0	 0	   0	 0	0	0/

#### relay models############

## under frequency ##
  5 'LDS3BL' 1          0         '0 '            0       59.300
          15.000      0.13300       1.0000       0.0000       0.0000
          0.0000       0.0000       0.0000       0.0000       0.0000
          0.0000       0.0000       0.0000       0.0000       0.0000
          0.0000       0.0000       0.0000       0.0000       0.0000    /

## under voltage ##
  5 'LVS3BL' 1          0            0         '0 '            0
               0         '0 '            0      0.91300       6.0000
         0.66000E-01  0.24500      0.91300       10.000      0.66000E-01
         0.54500       0.0000       0.0000       0.0000       0.0000
          0.0000       0.0000       0.0000       0.0000       0.0000
          0.0000       0.0000       0.0000       0.0000       0.0000      /
## Generator under/over freq trip
     1   'FRQTPAT'     1    1   1
         0.95000       5.0000       10.000       0.0000      /
## Generator under/over voltage trip
     1   'VTGTPAT'     1    1   1
         0.75000       5.0000       10.000       0.0000      /