{
    "general":{"version":"36.0"}, 
    "network":{
        "caseid":{
            "fields":["ic", "sbase", "rev", "xfrrat", "nxfrat", "basfrq", "title1", "title2"], 
            "data":[0, 100.0000, 36, 0, 1, 60.00000, "PSS(R)E SAMPLE CASE - ALL RECORD GROUPS WITH SEQ DATA", "CONTAINS NODE BREAKERS BUT NO SUBSTN SECTIONS, NO ZILS"]
        }, 
        "general":{
            "fields":["thrshz", "pqbrak", "blowup", "maxisollvls", "camaxreptsln", "chkdupcntlbl"], 
            "data":[0.1000000E-03, 0.7000000, 5.000000, 4, 20, 0]
        }, 
        "gauss":{
            "fields":["itmx", "accp", "accq", "accm", "tol"], 
            "data":[100, 1.600000, 1.600000, 1.000000, 0.1000000E-03]
        }, 
        "newton":{
            "fields":["itmxn", "accn", "toln", "vctolq", "vctolv", "dvlim", "ndvfct"], 
            "data":[100, 1.000000, 0.1000000, 0.1000000, 0.1000000E-04, 0.9900000, 0.9900000]
        }, 
        "adjust":{
            "fields":["adjthr", "acctap", "taplim", "swvbnd", "mxtpss", "mxswim"], 
            "data":[0.5000000E-02, 1.000000, 0, 100.0000, 99, 10]
        }, 
        "tysl":{
            "fields":["itmxty", "accty", "tolty"], 
            "data":[20, 1.000000, 0.1000000E-04]
        }, 
        "solver":{
            "fields":["method", "actaps", "areain", "phshft", "dctaps", "swshnt", "flatst", "varlim", "nondiv"], 
            "data":["FDNS", 0, 0, 0, 1, 1, 0, 99, 0]
        }, 
        "rating":{
            "fields":["irate", "name", "desc"], 
            "data":[
                [1, "CRCUS1", "Circus-Fibrous or threadlike"], 
                [2, "CRSTR2", "Cirrostrarus-Milky, translucent"], 
                [3, "CRCUM3", "Cirrocumulus-small, white flakes"], 
                [4, "ALTCU4", "Altocumulus-bundles or rollers"], 
                [5, "ALTST5", "Altostratus-dense, gray layer"], 
                [6, "STRTO6", "Stratocumulus-plaices or rollers"], 
                [7, "STRTS7", "Stratus-Evenly grey, low layer"], 
                [8, "CMULS8", "Cumulus-Heap with flat basis"], 
                [9, "CMULO9", "Cumulonimbus-thunder, up-rises"], 
                [10, "NIBS10", "Nimbostratus-rain,grey, dark"], 
                [11, "CPLL11", "capillatus-haired, frayed"], 
                [12, "NBUL12", "nebulosus-fog, veil-like"]
            ]
        }, 
        "swdratnam":{
            "fields":["irate", "rnam", "rtyp", "unit", "desc"], 
            "data":[
                [1, "EVRST1", 0, "MVA", "Everest-29032 ft-NPL CHN"], 
                [2, "K2-2", 0, "MVA", "K2-8611 m-28251 ft-PAK CHN"], 
                [3, "KNCHN3", 0, "MVA", "Kangchenjunga-28169 ft-IND"], 
                [4, "LHOTS4", 0, "MVA", "Lhotse-8516 m-27940 ft-CHN NPL"], 
                [5, "MKALU5", 0, "MVA", "Makalu-8485 m-27838 ft-NPL CHN"], 
                [6, "CHOYU6", 0, "MVA", "Cho Oyu-26864 ft-CHN NPL"], 
                [7, "DHLGR7", 1, "AMP", "Dhaulagiri I-26795 ft-NPL"], 
                [8, "MNSLU8", 1, "AMP", "Manaslu-8163 m-26781 ft-NPL"], 
                [9, "NPRBT9", 1, "AMP", "Nanga Parbat-26660 ft-PAK"], 
                [10, "ANNP10", 1, "AMP", "Annapurna I-26545 ft-NPL"], 
                [11, "GASH11", 1, "AMP", "Gasherbrum I-26510 ft-PAK CHN"], 
                [12, "BPEK12", 1, "AMP", "Broad Peak-26414 ft-PAK CHN"]
            ]
        }, 
        "bus":{
            "fields":["ibus", "name", "baskv", "ide", "area", "zone", "owner", "vm", "va", "nvhi", "nvlo", "evhi", "evlo"], 
            "data":[
                [101, "NUC-A", 21.60000, 2, 1, 1, 1, 1.010000, -16.00600, 1.100000, 0.9000000, 1.100000, 0.9000000], 
                [102, "NUC-B", 21.60000, 2, 1, 1, 1, 1.010000, -16.35950, 1.100000, 0.9000000, 1.100000, 0.9000000], 
                [151, "NUCPLNT", 500.0000, 1, 1, 1, 1, 0.9993700, -19.15280, 1.100000, 0.9000000, 1.100000, 0.9000000], 
                [152, "MID500", 500.0000, 1, 1, 2, 1, 1.044020, -26.95160, 1.100000, 0.9000000, 1.100000, 0.9000000], 
                [153, "MID230", 230.0000, 1, 1, 3, 1, 1.057750, -28.46540, 1.100000, 0.9000000, 1.100000, 0.9000000], 
                [154, "DOWNTN", 230.0000, 1, 1, 3, 1, 0.9932000, -33.07290, 1.100000, 0.9000000, 1.100000, 0.9000000], 
                [155, "FACTS TE", 230.0000, 1, 1, 4, 1, 1.018580, -24.24580, 1.100000, 0.9000000, 1.100000, 0.9000000], 
                [201, "HYDRO", 500.0000, 1, 2, 7, 2, 0.9993700, -19.15280, 1.100000, 0.9000000, 1.100000, 0.9000000], 
                [202, "EAST500", 500.0000, 1, 2, 2, 2, 1.022870, -28.26160, 1.100000, 0.9000000, 1.100000, 0.9000000], 
                [203, "EAST230", 230.0000, 1, 2, 8, 2, 1.000000, -29.40080, 1.100000, 0.9000000, 1.100000, 0.9000000], 
                [204, "SUB500", 500.0000, 1, 2, 8, 2, 1.031480, -31.27930, 1.100000, 0.9000000, 1.100000, 0.9000000], 
                [205, "SUB230", 230.0000, 1, 2, 8, 2, 1.000000, -33.55670, 1.100000, 0.9000000, 1.100000, 0.9000000], 
                [206, "URBGEN", 18.00000, 2, 2, 8, 2, 1.000000, -31.10180, 1.100000, 0.9000000, 1.100000, 0.9000000], 
                [207, "DUPONT", 500.0000, 1, 2, 7, 2, 1.019300, -25.36650, 1.100000, 0.9000000, 1.100000, 0.9000000], 
                [208, "URBANEAST208", 230.0000, 4, 2, 8, 2, 1.000000, -31.52460, 1.100000, 0.9000000, 1.100000, 0.9000000], 
                [209, "URBANEAST209", 230.0000, 4, 2, 8, 2, 1.000000, -31.52460, 1.100000, 0.9000000, 1.100000, 0.9000000], 
                [211, "HYDRO_G", 20.00000, 2, 2, 7, 2, 1.000000, -14.53050, 1.100000, 0.9000000, 1.100000, 0.9000000], 
                [212, "INVERT1", 230.0000, 1, 2, 7, 2, 1.026950, -31.93310, 1.100000, 0.9000000, 1.100000, 0.9000000], 
                [213, "INVERT2", 230.0000, 1, 2, 7, 2, 1.106770, -35.19880, 1.100000, 0.9000000, 1.100000, 0.9000000], 
                [214, "LOADER", 230.0000, 1, 2, 7, 2, 1.077260, -36.62860, 1.100000, 0.9000000, 1.100000, 0.9000000], 
                [215, "URBANEAST215", 18.00000, 1, 2, 8, 2, 0.9181700, -33.49090, 1.100000, 0.9000000, 1.100000, 0.9000000], 
                [216, "URBANEAST216", 230.0000, 1, 2, 8, 2, 0.9963700, -33.53360, 1.100000, 0.9000000, 1.100000, 0.9000000], 
                [217, "URBANEAST217", 230.0000, 1, 2, 8, 2, 0.9973300, -33.53970, 1.100000, 0.9000000, 1.100000, 0.9000000], 
                [218, "URBANEAST218", 230.0000, 1, 2, 8, 2, 0.9976900, -33.54190, 1.100000, 0.9000000, 1.100000, 0.9000000], 
                [301, "NORTH", 765.0000, 3, 3, 5, 3, 1.000000, 0.000000, 1.100000, 0.9000000, 1.100000, 0.9000000], 
                [401, "COGEN-1", 500.0000, 3, 4, 9, 4, 1.000000, 0.000000, 1.100000, 0.9000000, 1.100000, 0.9000000], 
                [402, "COGEN-2", 500.0000, 3, 6, 9, 4, 1.000000, 0.000000, 1.100000, 0.9000000, 1.100000, 0.9000000], 
                [3001, "MINE", 230.0000, 1, 5, 6, 5, 0.9928100, -12.11610, 1.100000, 0.9000000, 1.100000, 0.9000000], 
                [3002, "E. MINE", 500.0000, 1, 5, 6, 5, 0.9932400, -10.35680, 1.100000, 0.9000000, 1.100000, 0.9000000], 
                [3003, "S. MINE", 230.0000, 1, 5, 6, 5, 0.9922500, -11.67410, 1.100000, 0.9000000, 1.100000, 0.9000000], 
                [3004, "WEST", 500.0000, 1, 5, 6, 5, 1.012770, -22.37070, 1.100000, 0.9000000, 1.100000, 0.9000000], 
                [3005, "WEST", 230.0000, 1, 5, 2, 5, 0.9996000, -22.91760, 1.100000, 0.9000000, 1.100000, 0.9000000], 
                [3006, "UPTOWN", 230.0000, 1, 5, 4, 5, 1.057750, -28.46540, 1.100000, 0.9000000, 1.100000, 0.9000000], 
                [3007, "RURAL", 230.0000, 1, 5, 4, 5, 0.9821700, -26.07640, 1.100000, 0.9000000, 1.100000, 0.9000000], 
                [3008, "CATDOG", 230.0000, 1, 5, 4, 5, 0.9900000, -26.44020, 1.100000, 0.9000000, 1.100000, 0.9000000], 
                [3009, "URBNWEST3009", 230.0000, 1, 5, 4, 5, 0.9904800, -26.45980, 1.100000, 0.9000000, 1.100000, 0.9000000], 
                [3010, "INDMOTOR1", 21.60000, 1, 5, 4, 5, 0.9639000, 0.3038000, 1.100000, 0.9000000, 1.100000, 0.9000000], 
                [3011, "MINE_G", 19.40000, 3, 5, 6, 5, 1.000000, 0.000000, 1.100000, 0.9000000, 1.100000, 0.9000000], 
                [3012, "URBNWEST3012", 230.0000, 4, 5, 4, 5, 0.9904800, 0.000000, 1.100000, 0.9000000, 1.100000, 0.9000000], 
                [3018, "CATDOG_G", 13.80000, 2, 5, 4, 5, 0.9900000, -22.67030, 1.100000, 0.9000000, 1.100000, 0.9000000], 
                [3021, "WDUM", 18.00000, 1, 3, 5, 3, 1.000000, -23.46060, 1.100000, 0.9000000, 1.100000, 0.9000000], 
                [3022, "EDUM", 18.00000, 1, 3, 5, 3, 1.000000, -22.77170, 1.100000, 0.9000000, 1.100000, 0.9000000], 
                [9154, "INDGEN1", 4.160000, 1, 1, 3, 1, 0.9861500, -32.39120, 1.100000, 0.9000000, 1.100000, 0.9000000], 
                [9204, "INDMOTOR2", 0.5750000, 1, 2, 8, 2, 0.9820500, -34.96120, 1.100000, 0.9000000, 1.100000, 0.9000000], 
                [70202, "EAST-MOV", 500.0000, 1, 2, 2, 2, 1.020270, -28.42100, 1.100000, 0.9000000, 1.100000, 0.9000000], 
                [93002, "INDGEN2", 0.6900000, 1, 5, 6, 5, 0.9551700, -4.249800, 1.100000, 0.9000000, 1.100000, 0.9000000], 
                [703003, "S. MINE-MOV", 230.0000, 1, 5, 6, 5, 0.9993800, -15.62890, 1.100000, 0.9000000, 1.100000, 0.9000000], 
                [703005, "WEST-2-MOV", 230.0000, 1, 5, 2, 5, 1.006440, -24.37550, 1.100000, 0.9000000, 1.100000, 0.9000000]
            ]
        }, 
        "load":{
            "fields":["ibus", "loadid", "stat", "area", "zone", "pl", "ql", "ip", "iq", "yp", "yq", "owner", "scale", "intrpt", "dgenp", "dgenq", "dgenm", "loadtype", "name"], 
            "data":[
                [152, "1", 1, 1, 1, 1200.000, 360.0000, 868.3400, 360.5020, 837.7940, -351.3380, 1, 1, 0, 0.000000, 0.000000, 0, "LD_INDSTRY_1", "LOAD_100001"], 
                [153, "1", 1, 1, 1, 300.0000, 150.0000, 0.000000, 0.000000, 0.000000, 0.000000, 1, 1, 0, 100.0000, 50.00000, 1, "LD_INDSTRY_2", "LOAD_100002"], 
                [154, "1", 1, 1, 1, 400.0000, 200.0000, 0.000000, 0.000000, 0.000000, 0.000000, 1, 1, 0, 30.00000, 15.00000, 1, "LD_INDSTRY_3", "LOAD_100003"], 
                [154, "2", 1, 1, 1, 250.0000, 200.0000, 0.000000, 0.000000, 0.000000, 0.000000, 1, 1, 0, 20.00000, 8.000000, 1, "LD_INDSTRY_4", "LOAD_100004"], 
                [154, "3", 1, 1, 1, 250.0000, 100.0000, 0.000000, 0.000000, 0.000000, 0.000000, 1, 1, 0, 7.500000, 2.750000, 1, "LD_INDSTRY_5", "LOAD_100005"], 
                [154, "MO", 1, 1, 1, 100.0000, 80.00000, 0.000000, 0.000000, 0.000000, 0.000000, 1, 1, 0, 0.000000, 0.000000, 0, "LD_INDSTRY_6", "LOAD_100006"], 
                [201, "SC", 1, 2, 7, 0.000000, 0.000000, 0.000000, 0.000000, 0.000000, 0.000000, 2, 1, 0, 0.000000, 0.000000, 0, "LD_INDSTRY_7", "LOAD_100007"], 
                [203, "1", 1, 2, 2, 500.0000, 250.0000, 0.000000, 0.000000, 0.000000, 0.000000, 2, 1, 0, 0.000000, 0.000000, 0, "LD_INDSTRY_8", "LOAD_100008"], 
                [205, "1", 1, 2, 2, 1800.000, 600.0000, 0.000000, 0.000000, 0.000000, 0.000000, 2, 1, 0, 75.86000, 46.78600, 0, "LD_INDSTRY_9", "LOAD_100009"], 
                [205, "B", 1, 2, 2, 90.00000, 5.000000, 110.0000, 25.00000, 20.00000, 10.00000, 2, 1, 0, 65.12300, 20.45600, 1, "", "LOAD_100010"], 
                [205, "C", 1, 2, 2, 60.00000, 15.00000, 45.00000, 5.000000, 35.00000, 30.00000, 2, 1, 0, 37.00000, 13.00000, 1, "LD_DSTRBN_1", "LOAD_100011"], 
                [214, "1", 1, 2, 2, 500.0000, 75.00000, 0.000000, 0.000000, 0.000000, 0.000000, 2, 1, 0, 0.000000, 0.000000, 0, "LD_DSTRBN_2", "LOAD_100012"], 
                [215, "U1", 1, 2, 4, 0.000000, 140.0000, 0.000000, 0.000000, 0.000000, 0.000000, 2, 1, 0, 0.000000, 0.000000, 0, "LD_DSTRBN_3", "LOAD_100013"], 
                [216, "U1", 1, 2, 4, 0.000000, 12.00000, 0.000000, 0.000000, 0.000000, 0.000000, 2, 1, 0, 0.000000, 0.000000, 0, "LD_DSTRBN_4", "LOAD_100014"], 
                [217, "U1", 1, 2, 4, 0.000000, 10.00000, 0.000000, 0.000000, 0.000000, 0.000000, 2, 1, 0, 0.000000, 0.000000, 0, "LD_DSTRBN_5", "LOAD_100015"], 
                [218, "U1", 1, 2, 4, 0.000000, 9.000000, 0.000000, 0.000000, 0.000000, 0.000000, 2, 1, 0, 0.000000, 0.000000, 0, "LD_DSTRBN_6", "LOAD_100016"], 
                [3005, "1", 1, 5, 5, 100.0000, 50.00000, 0.000000, 0.000000, 0.000000, 0.000000, 5, 1, 0, 0.000000, 0.000000, 0, "LD_DSTRBN_7", "LOAD_100017"], 
                [3007, "1", 1, 5, 5, 200.0000, 75.00000, 0.000000, 0.000000, 0.000000, 0.000000, 5, 1, 0, 0.000000, 0.000000, 0, "LD_DSTRBN_8", "LOAD_100018"], 
                [3008, "1", 1, 5, 5, 200.0000, 75.00000, 0.000000, 0.000000, 0.000000, 0.000000, 5, 1, 0, 0.000000, 0.000000, 0, "LD_DSTRBN_9", "LOAD_100019"], 
                [3009, "1", 1, 5, 4, 1.100000, 0.9000000, 0.000000, 0.000000, 0.000000, 0.000000, 5, 1, 0, 0.000000, 0.000000, 0, "", "LOAD_100020"], 
                [3010, "1", 1, 5, 4, 12.00000, 5.000000, 0.000000, 0.000000, 0.000000, 0.000000, 5, 1, 0, 0.000000, 0.000000, 0, "", ""]
            ]
        }, 
        "fixshunt":{
            "fields":["ibus", "shntid", "stat", "gl", "bl", "name"], 
            "data":[
                [151, "F1", 1, 5.000000, -400.0000, "FXSH_200001"], 
                [151, "F2", 1, 3.000000, -400.0000, "FXSH_200002"], 
                [151, "F3", 1, 3.120000, 200.0000, "FXSH_200003"], 
                [152, "1", 1, 1.630000, 50.00000, "FXSH_200004"], 
                [154, "1", 1, 2.450000, 200.0000, "FXSH_200005"], 
                [201, "1", 1, 3.670000, -500.0000, "FXSH_200006"], 
                [203, "1", 1, -5.000000, 30.00000, "FXSH_200007"], 
                [203, "2", 1, 5.000000, 20.00000, "FXSH_200008"], 
                [205, "1", 1, 2.780000, 300.0000, "FXSH_200009"], 
                [212, "1", 1, 5.130000, 400.0000, "FXSH_200010"], 
                [213, "1", 1, 5.140000, 400.0000, "FXSH_200011"], 
                [3021, "1", 1, 0.000000, 1320.000, "FXSH_200012"], 
                [3022, "1", 1, 0.000000, 1080.000, ""]
            ]
        }, 
        "voltagedroop":{
            "fields":["name", "status", "regbus", "qdb", "qmin", "qmax", "vdblow", "vdbhigh", "vlow", "vhigh"], 
            "data":[
                ["VLTDRP_A", 1, 0, 10.12000, -50.00000, 100.0000, 0.9700000, 1.030000, 0.9500000, 1.050000], 
                ["VLTDRP_B", 1, 201, 35.14000, -25.00000, 255.0000, 0.9850000, 1.024000, 0.9630000, 1.042000], 
                ["VLTDRP_C", 1, 151, 15.13000, -70.00000, 155.0000, 0.9800000, 1.020000, 0.9600000, 1.040000], 
                ["VLTDRP_D", 1, 0, 57.15000, -50.00000, 100.0000, 0.9700000, 1.030000, 0.9500000, 1.050000]
            ]
        }, 
        "generator":{
            "fields":["ibus", "machid", "pg", "qg", "qt", "qb", "vs", "ireg", "nreg", "mbase", "zr", "zx", "rt", "xt", "gtap", "stat", "rmpct", "pt", "pb", "baslod", "o1", "f1", "o2", "f2", "o3", "f3", "o4", "f4", "wmod", "wpf", "droopname", "name"], 
            "data":[
                [101, "1", 750.0000, 163.3360, 243.7500, -37.50000, 1.010000, 101, 0, 900.0000, 0.1000000E-01, 0.3000000, 0.000000, 0.000000, 1.000000, 1, 100.0000, 800.0000, 50.00000, 1, 1, 0.1289000, 2, 0.2524000, 3, 0.1031000, 4, 0.5156000, 0, 0.000000, "", "CONVENIONAL_1"], 
                [102, "1", 650.0000, 150.0150, 406.2500, -62.50000, 1.010000, 102, 0, 950.0000, 0.1050000E-01, 0.3200000, 0.000000, 0.000000, 1.000000, 1, 100.0000, 700.0000, 33.00000, 2, 1, 0.3647000, 2, 0.1838000, 3, 0.7510000E-01, 4, 0.3764000, 0, 0.000000, "", "CONVENIONAL_2"], 
                [206, "1", 800.0000, 283.9130, 600.0000, 0.000000, 1.000000, 206, 0, 1000.000, 0.1060000E-01, 0.2510000, 0.000000, 0.000000, 1.000000, 1, 100.0000, 850.0000, 50.00000, 3, 1, 0.1034000, 2, 0.4006000, 3, 0.8250000E-01, 4, 0.4135000, null, null, null, null], 
                [211, "1", 600.0000, 17.30400, 583.3330, -77.77800, 1.000000, 211, 0, 725.0000, 0.1080000E-01, 0.2620000, 0.000000, 0.000000, 1.000000, 1, 100.0000, 616.0000, 30.00000, 0, 1, 0.1423000, 2, 0.2210000, 3, 0.1842000, 4, 0.4525000, 1, 1.000000, "", "RENEWABLE_Q_FROM_QT_QB_1"], 
                [301, "1", 996.8840, 327.6600, 327.6600, 327.6600, 1.000000, 301, 0, 1067.000, 0.1090000E-01, 0.2300000, 0.1400000E-01, 0.1260000, 1.025000, 1, 98.00000, 1010.000, 320.0000, 0, 1, 0.1118000, 2, 0.2184000, 3, 0.8930000E-01, 4, 0.5805000, 3, 0.9500000, "", "RENEWABLE_Q_FROM_MQ_WPF_1"], 
                [301, "2", 996.8840, 285.4810, 710.0000, -600.0000, 1.000000, 301, 0, 1070.000, 0.1100000E-01, 0.2400000, 0.1100000E-01, 0.1270000, 1.026000, 1, 98.00000, 1011.000, 321.0000, 0, 1, 0.1173000, 2, 0.3200000, 3, 0.9360000E-01, 4, 0.4691000, null, null, null, null], 
                [301, "3", 996.8840, 285.4810, 720.0000, -600.0000, 1.000000, 301, 0, 1075.000, 0.8000000E-02, 0.2500000, 0.1200000E-01, 0.1280000, 1.027000, 1, 98.00000, 1012.000, 322.0000, 0, 1, 0.1260000, 2, 0.2268000, 3, 0.1827000, 4, 0.4644000, null, null, null, null], 
                [401, "1", 321.0000, 142.3250, 600.0000, -100.0000, 1.000000, 401, 0, 600.0000, 0.1230000E-01, 0.2223000, 0.000000, 0.000000, 1.000000, 1, 90.00000, 350.0000, 25.00000, 0, 1, 0.1625000, 2, 0.2423000, 3, 0.9900000E-01, 4, 0.4962000, 4, 1.000000, "", "INFEED_QG_CONSTANT_1"], 
                [402, "1", 321.0000, 142.3250, 610.0000, -110.0000, 1.000000, 402, 0, 610.0000, 0.4500000E-02, 0.2432000, 0.000000, 0.000000, 1.000000, 1, 91.00000, 351.0000, 26.00000, 0, 1, 0.1588000, 2, 0.2117000, 3, 0.1959000, 4, 0.4335000, 4, 1.000000, "", "INFEED_QG_CONSTANT_2"], 
                [3011, "1", 1142.017, 132.4460, 600.0000, -100.0000, 1.000000, 3011, 0, 1050.000, 0.7600000E-02, 0.3543000, 0.000000, 0.000000, 1.000000, 1, 92.00000, 1400.000, 100.0000, 0, 1, 0.1452000, 2, 0.1926000, 3, 0.2677000, 4, 0.3945000, 0, 0.000000, "VLTDRP_D", "CONVENIONAL_3"], 
                [3018, "1", 400.0000, 0.000000, 80.00000, 0.000000, 0.9900000, 3018, 0, 530.0000, 0.8700000E-01, 0.3563000, 0.000000, 0.000000, 1.000000, 1, 92.50000, 500.0000, 50.00000, 0, 1, 0.1043000, 2, 0.2037000, 3, 0.2749000, 4, 0.4171000, null, null, null, null], 
                [3018, "2", 100.0000, -0.7850000, 75.00000, -75.00000, 0.9900000, 3018, 0, 120.0000, 0.2400000E-01, 0.3553000, 0.000000, 0.000000, 1.000000, 1, 92.50000, 110.0000, 20.00000, 0, 1, 0.3003000, 2, 0.1358000, 3, 0.2857000, 4, 0.2782000, null, null, null, null]
            ]
        }, 
        "swdratset":{
            "fields":["rsetnam", "desc", "rate1", "rate2", "rate3", "rate4", "rate5", "rate6", "rate7", "rate8", "rate9", "rate10", "rate11", "rate12"], 
            "data":[
                ["SWD_AIR_BLAST_AXIAL", "BREAKERS IN REGION H AIR_BLAST_AXIAL", 6801.010, 6802.020, 6803.030, 6804.040, 6805.050, 6806.060, 6807.070, 6808.080, 6809.090, 6810.100, 6811.110, 6812.120], 
                ["SWD_AIR_BLAST_CROSS", "BREAKERS IN REGION I AIR_BLAST_CROSS", 3701.010, 3702.020, 3703.030, 3704.040, 3705.050, 3706.060, 3707.070, 3708.080, 3709.090, 3710.100, 3711.110, 3712.120], 
                ["SWD_AIR_BLAST_RADIAL", "BREAKERS IN REGION J AIR_BLAST_RADIAL", 701.0100, 702.0200, 703.0300, 704.0400, 705.0500, 706.0600, 707.0700, 708.0800, 709.0900, 710.1000, 711.1100, 712.1200], 
                ["SWD_BLUE_SF6_FREE", "BREAKERS IN REGION K BLUE_SF6_FREE", 401.0100, 402.0200, 403.0300, 404.0400, 405.0500, 406.0600, 407.0700, 408.0800, 409.0900, 410.1000, 411.1100, 412.1200], 
                ["SWD_OIL_BULK_IMPULSE", "BREAKERS IN REGION G OIL_BULK_IMPULSE", 1701.010, 1702.020, 1703.030, 1704.040, 1705.050, 1706.060, 1707.070, 1708.080, 1709.090, 1710.100, 1711.110, 1712.120], 
                ["SWD_OIL_BULK_PLAIN", "BREAKERS IN REGION E OIL_BULK_PLAIN", 1501.010, 1502.020, 1503.030, 1504.040, 1505.050, 1506.060, 1507.070, 1508.080, 1509.090, 1510.100, 1511.110, 1512.120], 
                ["SWD_OIL_BULK_PRESSURE", "BREAKERS IN REGION F OIL_BULK_PRESSURE", 2201.010, 2202.020, 2203.030, 2204.040, 2205.050, 2206.060, 2207.070, 2208.080, 2209.090, 2210.100, 2211.110, 2212.120], 
                ["SWD_SF6_DOUBLEE_PUFFER", "BREAKERS IN REGION C SF6_DOUBLEE_PUFFER", 5001.010, 5002.020, 5003.030, 5004.040, 5005.050, 5006.060, 5007.070, 5008.080, 5009.090, 5010.100, 5011.110, 5012.120], 
                ["SWD_SF6_NO_PUFFER", "BREAKERS IN REGION D SF6_NO_PUFFER", 2001.010, 2002.020, 2003.030, 2004.040, 2005.050, 2006.060, 2007.070, 2008.080, 2009.090, 2010.100, 2011.110, 2012.120], 
                ["SWD_SF6_SINGLE_PUFFER", "BREAKERS IN REGION A SF6_SINGLE_PUFFER", 4001.010, 4002.020, 4003.030, 4004.040, 4005.050, 4006.060, 4007.070, 4008.080, 4009.090, 4010.100, 4011.110, 4012.120], 
                ["SWD_VACUUM_FIXED", "BREAKERS IN REGION B VACUUM_FIXED", 3001.010, 3002.020, 3003.030, 3004.040, 3005.050, 3006.060, 3007.070, 3008.080, 3009.090, 3010.100, 3011.110, 3012.120], 
                ["SWD_VACUUM_MOVING", "BREAKERS IN REGION C VACUUM_MOVING", 6001.010, 6002.020, 6003.030, 6004.040, 6005.050, 6006.060, 6007.070, 6008.080, 6009.090, 6010.100, 6011.110, 6012.120]
            ]
        }, 
        "acline":{
            "fields":["ibus", "jbus", "ckt", "rpu", "xpu", "bpu", "name", "rate1", "rate2", "rate3", "rate4", "rate5", "rate6", "rate7", "rate8", "rate9", "rate10", "rate11", "rate12", "gi", "bi", "gj", "bj", "stat", "bp", "met", "len", "o1", "f1", "o2", "f2", "o3", "f3", "o4", "f4"], 
            "data":[
                [151, 152, "1", 0.2600000E-02, 0.4600000E-01, 3.500000, "BRANCH_FROM__151_TO__152___CIRCUIT_ID__1", 1200.000, 1202.120, 1203.130, 1204.140, 1205.150, 1206.160, 1207.170, 1208.180, 1209.190, 1210.200, 1211.210, 1212.220, 0.1000000E-01, -0.2500000, 0.1100000E-01, -0.1500000, 1, 0, 2, 150.0000, 1, 0.2000000, 2, 0.3000000, 3, 0.4000000, 4, 0.1000000], 
                [151, 152, "2", 0.2610000E-02, 0.4610000E-01, 3.510000, "BRANCH_FROM__151_TO__152___CIRCUIT_ID__2", 1205.000, 1207.120, 1208.130, 1209.140, 1210.150, 1211.160, 1212.170, 1213.180, 1214.190, 1215.200, 1216.210, 1217.220, 0.1300000E-01, -0.2510000, 0.1200000E-01, -0.2000000E-01, 1, 0, 2, 149.0000, 5, 0.2315000, 1, 0.3056000, 2, 0.3704000, 3, 0.9260000E-01], 
                [152, 3004, "1", 0.3000000E-02, 0.3000000E-01, 2.500000, "BRANCH_FROM__152_TO_3004___CIRCUIT_ID__1", 1207.000, 1209.120, 1210.130, 1211.140, 1212.150, 1213.160, 1214.170, 1215.180, 1216.190, 1217.200, 1218.210, 1219.220, 0.000000, 0.000000, 0.000000, 0.000000, 1, 0, 2, 201.0000, 5, 0.2379000, 1, 0.3033000, 2, 0.3667000, 3, 0.9220000E-01], 
                [152, 70202, "1", 0.8000000E-03, 0.1000000E-01, 0.9500000, "BRANCH_FROM__152_TO__70202_CIRCUIT_ID__1", 1207.000, 1209.120, 1210.130, 1211.140, 1212.150, 1213.160, 1214.170, 1215.180, 1216.190, 1217.200, 1218.210, 1219.220, 0.000000, 0.000000, 0.000000, 0.000000, 1, 0, 1, 200.0000, 1, 0.3939000, 2, 0.2273000, 3, 0.3030000, 4, 0.7580000E-01], 
                [153, 154, "2", 0.6000000E-02, 0.5400000E-01, 0.1500000, "BRANCH_FROM__153_TO__154___CIRCUIT_ID__2", 350.0000, 352.1200, 353.1300, 354.1400, 355.1500, 356.1600, 357.1700, 358.1800, 359.1900, 360.2000, 361.2100, 362.2200, 0.000000, 0.000000, 0.000000, 0.000000, 1, 0, 2, 80.00000, 2, 0.2727000, 3, 0.2727000, 4, 0.3636000, 5, 0.9090000E-01], 
                [154, 155, "1", 0.5000000E-02, 0.4500000E-01, 0.1000000, "BRANCH_FROM__154_TO__155___CIRCUIT_ID__1", 400.0000, 402.1200, 403.1300, 404.1400, 405.1500, 406.1600, 407.1700, 408.1800, 409.1900, 410.2000, 411.2100, 412.2200, 0.000000, 0.000000, 0.000000, 0.000000, 1, 0, 1, 81.00000, 5, 0.1914000, 1, 0.2535000, 2, 0.3065000, 3, 0.2486000], 
                [154, 203, "1", 0.4000000E-02, 0.4000000E-01, 0.1000000, "BRANCH_FROM__154_TO__203___CIRCUIT_ID__1", 400.0000, 402.1200, 403.1300, 404.1400, 405.1500, 406.1600, 407.1700, 408.1800, 409.1900, 410.2000, 411.2100, 412.2200, 0.000000, 0.000000, 0.000000, 0.000000, 1, 0, 2, 100.0000, 2, 0.2000000, 3, 0.3000000, 4, 0.4000000, 5, 0.1000000], 
                [154, 205, "1", 0.3300000E-03, 0.3330000E-02, 0.9000000E-01, "BRANCH_FROM__154_TO__205___CIRCUIT_ID__1", 600.0000, 602.1200, 603.1300, 604.1400, 605.1500, 606.1600, 607.1700, 608.1800, 609.1900, 610.2000, 611.2100, 612.2200, 0.000000, 0.000000, 0.000000, 0.000000, 1, 0, 2, 120.0000, 1, 0.1667000, 2, 0.2500000, 3, 0.3333000, 4, 0.2500000], 
                [154, 3008, "1", 0.2700000E-02, 0.2200000E-01, 0.3000000, "BRANCH_FROM__154_TO_3008___CIRCUIT_ID__1", 800.0000, 802.1200, 803.1300, 804.1400, 805.1500, 806.1600, 807.1700, 808.1800, 809.1900, 810.2000, 811.2100, 812.2200, 0.000000, 0.000000, 0.000000, 0.000000, 1, 0, 2, 119.0000, 5, 0.1925000, 1, 0.2550000, 2, 0.3083000, 3, 0.2442000], 
                [201, 202, "1", 0.2000000E-02, 0.2500000E-01, 2.000000, "BRANCH_FROM__201_TO__202___CIRCUIT_ID__1", 1200.000, 1202.120, 1203.130, 1204.140, 1205.150, 1206.160, 1207.170, 1208.180, 1209.190, 1210.200, 1211.210, 1212.220, 0.000000, 0.000000, 0.000000, 0.000000, 1, 0, 2, 300.0000, 2, 0.1905000, 3, 0.2857000, 4, 0.3810000, 5, 0.1429000], 
                [201, 207, "C1", 0.1500000E-02, 0.1500000E-01, 1.250000, "BRANCH_FROM__201_TO__207___CIRCUIT_ID_C1", 1200.000, 1202.120, 1203.130, 1204.140, 1205.150, 1206.160, 1207.170, 1208.180, 1209.190, 1210.200, 1211.210, 1212.220, 0.000000, 0.000000, 0.000000, 0.000000, 1, 0, 2, 250.0000, 1, 0.2500000, 2, 0.3750000, 3, 0.2500000, 4, 0.1250000], 
                [202, 70202, "1", 0.000000, -0.1000000E-02, 0.000000, "BRANCH_FROM__202_TO_70202_CIRCUIT_ID__1", 1207.000, 1209.120, 1210.130, 1211.140, 1212.150, 1213.160, 1214.170, 1215.180, 1216.190, 1217.200, 1218.210, 1219.220, 0.000000, 0.000000, 0.000000, 0.000000, 1, 0, 1, 1.000000, 1, 0.3939000, 2, 0.2273000, 3, 0.3030000, 4, 0.7580000E-01], 
                [203, 205, "1", 0.5000000E-02, 0.4500000E-01, 0.8000000E-01, "BRANCH_FROM__203_TO__205___CIRCUIT_ID__1", 200.0000, 202.1200, 203.1300, 204.1400, 205.1500, 206.1600, 207.1700, 208.1800, 209.1900, 210.2000, 211.2100, 212.2200, 0.000000, 0.000000, 0.000000, 0.000000, 1, 0, 1, 70.00000, 5, 0.1925000, 1, 0.2550000, 2, 0.3083000, 3, 0.2442000], 
                [204, 207, "C2", 0.1500000E-02, 0.1500000E-01, 1.250000, "BRANCH_FROM__204_TO__207___CIRCUIT_ID_C2", 1200.000, 1202.120, 1203.130, 1204.140, 1205.150, 1206.160, 1207.170, 1208.180, 1209.190, 1210.200, 1211.210, 1212.220, 0.000000, 0.000000, 0.000000, 0.000000, 1, 0, 2, 300.0000, 2, 0.2000000, 3, 0.3000000, 4, 0.4000000, 5, 0.1000000], 
                [205, 212, "1", 0.000000, 0.1000000E-01, 0.000000, "BRANCH_FROM__205_TO__212___CIRCUIT_ID__1", 1250.000, 1252.120, 1253.130, 1254.140, 1255.150, 1256.160, 1257.170, 1258.180, 1259.190, 1260.200, 1261.210, 1262.220, 0.000000, 0.000000, 0.000000, 0.000000, 1, 0, 1, 71.00000, 1, 0.2000000, 2, 0.3000000, 3, 0.4000000, 4, 0.1000000], 
                [205, 214, "2", 0.2000000E-02, 0.2500000E-01, 2.000000, "BRANCH_FROM__205_TO__214___CIRCUIT_ID__2", 1200.000, 1202.120, 1203.130, 1204.140, 1205.150, 1206.160, 1207.170, 1208.180, 1209.190, 1210.200, 1211.210, 1212.220, 0.000000, 0.000000, 0.000000, 0.000000, 1, 0, 2, 100.0000, 5, 0.2100000, 1, 0.2782000, 2, 0.3364000, 3, 0.1755000], 
                [205, 216, "3", 0.5000000E-02, 0.4500000E-01, 0.8000000E-01, "BRANCH_FROM__205_TO__216___CIRCUIT_ID__3", 200.0000, 202.1200, 203.1300, 204.1400, 205.1500, 206.1600, 207.1700, 208.1800, 209.1900, 210.2000, 211.2100, 212.2200, 0.000000, 0.000000, 0.000000, 0.000000, 1, 0, 2, 81.00000, 2, 0.1818000, 3, 0.2727000, 4, 0.3636000, 5, 0.1818000], 
                [205, 217, "4", 0.5000000E-02, 0.4500000E-01, 0.8000000E-01, "BRANCH_FROM__205_TO__217___CIRCUIT_ID__4", 200.0000, 202.1200, 203.1300, 204.1400, 205.1500, 206.1600, 207.1700, 208.1800, 209.1900, 210.2000, 211.2100, 212.2200, 0.000000, 0.000000, 0.000000, 0.000000, 1, 0, 2, 80.00000, 1, 0.1667000, 2, 0.2500000, 3, 0.3333000, 4, 0.2500000], 
                [205, 218, "5", 0.5000000E-02, 0.4500000E-01, 0.8000000E-01, "BRANCH_FROM__205_TO__218___CIRCUIT_ID__5", 200.0000, 202.1200, 203.1300, 204.1400, 205.1500, 206.1600, 207.1700, 208.1800, 209.1900, 210.2000, 211.2100, 212.2200, 0.000000, 0.000000, 0.000000, 0.000000, 1, 0, 2, 59.00000, 5, 0.1650000, 1, 0.2186000, 2, 0.2643000, 3, 0.3521000], 
                [213, 214, "1", 0.000000, 0.1000000E-01, 0.000000, "BRANCH_FROM__213_TO__214___CIRCUIT_ID__1", 1250.000, 1252.120, 1253.130, 1254.140, 1255.150, 1256.160, 1257.170, 1258.180, 1259.190, 1260.200, 1261.210, 1262.220, 0.000000, 0.000000, 0.000000, 0.000000, 1, 0, 2, 0.5000000, 2, 0.1429000, 3, 0.2143000, 4, 0.2857000, 5, 0.3571000], 
                [3001, 703003, "1", 0.000000, 0.8000000E-02, 0.000000, "BRANCH_FROM_3001_TO_703003_CIRCUIT_ID__1", 320.0000, 322.1200, 323.1300, 324.1400, 325.1500, 326.1600, 327.1700, 328.1800, 329.1900, 330.2000, 331.2100, 332.2200, 0.000000, 0.000000, 0.000000, 0.000000, 1, 0, 2, 70.00000, 1, 0.1639000, 2, 0.2459000, 3, 0.3279000, 4, 0.2623000], 
                [3002, 3004, "1", 0.6000000E-02, 0.5400000E-01, 0.9000000E-01, "BRANCH_FROM_3002_TO_3004___CIRCUIT_ID__1", 330.0000, 332.1200, 333.1300, 334.1400, 335.1500, 336.1600, 337.1700, 338.1800, 339.1900, 340.2000, 341.2100, 342.2200, 0.000000, 0.000000, 0.000000, 0.000000, 1, 0, 2, 200.0000, 5, 0.1925000, 1, 0.2550000, 2, 0.3083000, 3, 0.2442000], 
                [3003, 3005, "1", 0.6000000E-02, 0.5400000E-01, 0.9000000E-01, "BRANCH_FROM_3003_TO_3005___CIRCUIT_ID__1", 340.0000, 342.1200, 343.1300, 344.1400, 345.1500, 346.1600, 347.1700, 348.1800, 349.1900, 350.2000, 351.2100, 352.2200, 0.000000, 0.000000, 0.000000, 0.000000, 1, 0, 2, 90.00000, 2, 0.2000000, 3, 0.3000000, 4, 0.4000000, 5, 0.1000000], 
                [3003, 703003, "1", 0.000000, -0.9000000E-02, 0.000000, "BRANCH_FROM_3003_TO_703003_CIRCUIT_ID__1", 350.0000, 352.1200, 353.1300, 354.1400, 355.1500, 356.1600, 357.1700, 358.1800, 359.1900, 360.2000, 361.2100, 362.2200, 0.000000, 0.000000, 0.000000, 0.000000, 1, 0, 2, 1.000000, 5, 0.1925000, 1, 0.2550000, 2, 0.3083000, 3, 0.2442000], 