@!IC,SBASE,REV,XFRRAT,NXFRAT,BASFRQ
0,  100.00, 36,     0,     1, 60.00     / PSS(R)E-36.0    FRI, SEP 22 2023  23:07
PSS(R)E SAMPLE CASE - ALL RECORD GROUPS WITH SEQ DATA
CONTAINS NODE BREAKERS BUT NO SUBSTN SECTIONS, NO ZILS
GENERAL, THRSHZ=0.0001, PQBRAK=0.7, BLOWUP=5.0, MaxIsolLvls=4, CAMaxReptSln=20, ChkDupCntLbl=0
GAUSS, ITMX=100, ACCP=1.6, ACCQ=1.6, ACCM=1.0, TOL=0.0001
NEWTON, ITMXN=100, ACCN=1.0, TOLN=0.1, VCTOLQ=0.1, VCTOLV=0.00001, DVLIM=0.99, NDVFCT=0.99
ADJUST, ADJTHR=0.005, ACCTAP=1.0, TAPLIM=0.05, SWVBND=100.0, MXTPSS=99, MXSWIM=10
TYSL, ITMXTY=20, ACCTY=1.0, TOLTY=0.00001
SOLVER, FDNS, ACTAPS=0, AREAIN=0, PHSHFT=0, DCTAPS=1, SWSHNT=1, FLATST=0, VARLIM=99, NONDIV=0
RATING, 1, "CRCUS1", "Circus-Fibrous or threadlike    "
RATING, 2, "CRSTR2", "Cirrostrarus-Milky, translucent "
RATING, 3, "CRCUM3", "Cirrocumulus-small, white flakes"
RATING, 4, "ALTCU4", "Altocumulus-bundles or rollers  "
RATING, 5, "ALTST5", "Altostratus-dense, gray layer   "
RATING, 6, "STRTO6", "Stratocumulus-plaices or rollers"
RATING, 7, "STRTS7", "Stratus-Evenly grey, low layer  "
RATING, 8, "CMULS8", "Cumulus-Heap with flat basis    "
RATING, 9, "CMULO9", "Cumulonimbus-thunder, up-rises  "
RATING,10, "NIBS10", "Nimbostratus-rain,grey, dark    "
RATING,11, "CPLL11", "capillatus-haired, frayed       "
RATING,12, "NBUL12", "nebulosus-fog, veil-like        "
SWDRATNAM,  1, "EVRST1", 0, "MVA", "Everest-29032 ft-NPL CHN        "
SWDRATNAM,  2, "K2-2  ", 0, "MVA", "K2-8611 m-28251 ft-PAK CHN      "
SWDRATNAM,  3, "KNCHN3", 0, "MVA", "Kangchenjunga-28169 ft-IND      "
SWDRATNAM,  4, "LHOTS4", 0, "MVA", "Lhotse-8516 m-27940 ft-CHN NPL  "
SWDRATNAM,  5, "MKALU5", 0, "MVA", "Makalu-8485 m-27838 ft-NPL CHN  "
SWDRATNAM,  6, "CHOYU6", 0, "MVA", "Cho Oyu-26864 ft-CHN NPL        "
SWDRATNAM,  7, "DHLGR7", 1, "AMP", "Dhaulagiri I-26795 ft-NPL       "
SWDRATNAM,  8, "MNSLU8", 1, "AMP", "Manaslu-8163 m-26781 ft-NPL     "
SWDRATNAM,  9, "NPRBT9", 1, "AMP", "Nanga Parbat-26660 ft-PAK       "
SWDRATNAM, 10, "ANNP10", 1, "AMP", "Annapurna I-26545 ft-NPL        "
SWDRATNAM, 11, "GASH11", 1, "AMP", "Gasherbrum I-26510 ft-PAK CHN   "
SWDRATNAM, 12, "BPEK12", 1, "AMP", "Broad Peak-26414 ft-PAK CHN     "
0 / END OF SYSTEM-WIDE DATA, BEGIN BUS DATA
@!   I,'NAME        ', BASKV, IDE,AREA,ZONE,OWNER, VM,        VA,    NVHI,   NVLO,   EVHI,   EVLO
   101,'NUC-A       ',  21.6000,2,   1,   1,   1,1.01000, -16.0060,1.10000,0.90000,1.10000,0.90000
   102,'NUC-B       ',  21.6000,2,   1,   1,   1,1.01000, -16.3595,1.10000,0.90000,1.10000,0.90000
   151,'NUCPLNT     ', 500.0000,1,   1,   1,   1,0.99937, -19.1528,1.10000,0.90000,1.10000,0.90000
   152,'MID500      ', 500.0000,1,   1,   2,   1,1.04402, -26.9516,1.10000,0.90000,1.10000,0.90000
   153,'MID230      ', 230.0000,1,   1,   3,   1,1.05775, -28.4654,1.10000,0.90000,1.10000,0.90000
   154,'DOWNTN      ', 230.0000,1,   1,   3,   1,0.99320, -33.0729,1.10000,0.90000,1.10000,0.90000
   155,'FACTS TE    ', 230.0000,1,   1,   4,   1,1.01858, -24.2458,1.10000,0.90000,1.10000,0.90000
   201,'HYDRO       ', 500.0000,1,   2,   7,   2,0.99937, -19.1528,1.10000,0.90000,1.10000,0.90000
   202,'EAST500     ', 500.0000,1,   2,   2,   2,1.02287, -28.2616,1.10000,0.90000,1.10000,0.90000
   203,'EAST230     ', 230.0000,1,   2,   8,   2,1.00000, -29.4008,1.10000,0.90000,1.10000,0.90000
   204,'SUB500      ', 500.0000,1,   2,   8,   2,1.03148, -31.2793,1.10000,0.90000,1.10000,0.90000
   205,'SUB230      ', 230.0000,1,   2,   8,   2,1.00000, -33.5567,1.10000,0.90000,1.10000,0.90000
   206,'URBGEN      ',  18.0000,2,   2,   8,   2,1.00000, -31.1018,1.10000,0.90000,1.10000,0.90000
   207,'DUPONT      ', 500.0000,1,   2,   7,   2,1.01930, -25.3665,1.10000,0.90000,1.10000,0.90000
   208,'URBANEAST208', 230.0000,4,   2,   8,   2,1.00000, -31.5246,1.10000,0.90000,1.10000,0.90000
   209,'URBANEAST209', 230.0000,4,   2,   8,   2,1.00000, -31.5246,1.10000,0.90000,1.10000,0.90000
   211,'HYDRO_G     ',  20.0000,2,   2,   7,   2,1.00000, -14.5305,1.10000,0.90000,1.10000,0.90000
   212,'INVERT1     ', 230.0000,1,   2,   7,   2,1.02695, -31.9331,1.10000,0.90000,1.10000,0.90000
   213,'INVERT2     ', 230.0000,1,   2,   7,   2,1.10677, -35.1988,1.10000,0.90000,1.10000,0.90000
   214,'LOADER      ', 230.0000,1,   2,   7,   2,1.07726, -36.6286,1.10000,0.90000,1.10000,0.90000
   215,'URBANEAST215',  18.0000,1,   2,   8,   2,0.91817, -33.4909,1.10000,0.90000,1.10000,0.90000
   216,'URBANEAST216', 230.0000,1,   2,   8,   2,0.99637, -33.5336,1.10000,0.90000,1.10000,0.90000
   217,'URBANEAST217', 230.0000,1,   2,   8,   2,0.99733, -33.5397,1.10000,0.90000,1.10000,0.90000
   218,'URBANEAST218', 230.0000,1,   2,   8,   2,0.99769, -33.5419,1.10000,0.90000,1.10000,0.90000
   301,'NORTH       ', 765.0000,3,   3,   5,   3,1.00000,   0.0000,1.10000,0.90000,1.10000,0.90000
   401,'COGEN-1     ', 500.0000,3,   4,   9,   4,1.00000,   0.0000,1.10000,0.90000,1.10000,0.90000
   402,'COGEN-2     ', 500.0000,3,   6,   9,   4,1.00000,   0.0000,1.10000,0.90000,1.10000,0.90000
  3001,'MINE        ', 230.0000,1,   5,   6,   5,0.99281, -12.1161,1.10000,0.90000,1.10000,0.90000
  3002,'E. MINE     ', 500.0000,1,   5,   6,   5,0.99324, -10.3568,1.10000,0.90000,1.10000,0.90000
  3003,'S. MINE     ', 230.0000,1,   5,   6,   5,0.99225, -11.6741,1.10000,0.90000,1.10000,0.90000
  3004,'WEST        ', 500.0000,1,   5,   6,   5,1.01277, -22.3707,1.10000,0.90000,1.10000,0.90000
  3005,'WEST        ', 230.0000,1,   5,   2,   5,0.99960, -22.9176,1.10000,0.90000,1.10000,0.90000
  3006,'UPTOWN      ', 230.0000,1,   5,   4,   5,1.05775, -28.4654,1.10000,0.90000,1.10000,0.90000
  3007,'RURAL       ', 230.0000,1,   5,   4,   5,0.98217, -26.0764,1.10000,0.90000,1.10000,0.90000
  3008,'CATDOG      ', 230.0000,1,   5,   4,   5,0.99000, -26.4402,1.10000,0.90000,1.10000,0.90000
  3009,'URBNWEST3009', 230.0000,1,   5,   4,   5,0.99048, -26.4598,1.10000,0.90000,1.10000,0.90000
  3010,'INDMOTOR1   ',  21.6000,1,   5,   4,   5,0.96390,   0.3038,1.10000,0.90000,1.10000,0.90000
  3011,'MINE_G      ',  19.4000,3,   5,   6,   5,1.00000,   0.0000,1.10000,0.90000,1.10000,0.90000
  3012,'URBNWEST3012', 230.0000,4,   5,   4,   5,0.99048,   0.0000,1.10000,0.90000,1.10000,0.90000
  3018,'CATDOG_G    ',  13.8000,2,   5,   4,   5,0.99000, -22.6703,1.10000,0.90000,1.10000,0.90000
  3021,'WDUM        ',  18.0000,1,   3,   5,   3,1.00000, -23.4606,1.10000,0.90000,1.10000,0.90000
  3022,'EDUM        ',  18.0000,1,   3,   5,   3,1.00000, -22.7717,1.10000,0.90000,1.10000,0.90000
  9154,'INDGEN1     ',   4.1600,1,   1,   3,   1,0.98615, -32.3912,1.10000,0.90000,1.10000,0.90000
  9204,'INDMOTOR2   ',   0.5750,1,   2,   8,   2,0.98205, -34.9612,1.10000,0.90000,1.10000,0.90000
 70202,'EAST-MOV    ', 500.0000,1,   2,   2,   2,1.02027, -28.4210,1.10000,0.90000,1.10000,0.90000
 93002,'INDGEN2     ',   0.6900,1,   5,   6,   5,0.95517,  -4.2498,1.10000,0.90000,1.10000,0.90000
703003,'S. MINE-MOV ', 230.0000,1,   5,   6,   5,0.99938, -15.6289,1.10000,0.90000,1.10000,0.90000
703005,'WEST-2-MOV  ', 230.0000,1,   5,   2,   5,1.00644, -24.3755,1.10000,0.90000,1.10000,0.90000
0 / END OF BUS DATA, BEGIN LOAD DATA
@!   I,'ID',STAT,AREA,ZONE,      PL,        QL,        IP,        IQ,        YP,        YQ, OWNER,SCALE,INTRPT,  DGENP,     DGENQ,DGENF,'  LOAD TYPE ',               'N A M E'
   152,'1 ',   1,   1,   1,  1200.000,   360.000,   868.340,   360.502,   837.794,  -351.338,   1,    1,  0,     0.000,     0.000,    0,'LD_INDSTRY_1','LOAD_100001                             '
   153,'1 ',   1,   1,   1,   300.000,   150.000,     0.000,     0.000,     0.000,     0.000,   1,    1,  0,   100.000,    50.000,    1,'LD_INDSTRY_2','LOAD_100002                             '
   154,'1 ',   1,   1,   1,   400.000,   200.000,     0.000,     0.000,     0.000,     0.000,   1,    1,  0,    30.000,    15.000,    1,'LD_INDSTRY_3','LOAD_100003                             '
   154,'2 ',   1,   1,   1,   250.000,   200.000,     0.000,     0.000,     0.000,     0.000,   1,    1,  0,    20.000,     8.000,    1,'LD_INDSTRY_4','LOAD_100004                             '
   154,'3 ',   1,   1,   1,   250.000,   100.000,     0.000,     0.000,     0.000,     0.000,   1,    1,  0,     7.500,     2.750,    1,'LD_INDSTRY_5','LOAD_100005                             '
   154,'MO',   1,   1,   1,   100.000,    80.000,     0.000,     0.000,     0.000,     0.000,   1,    1,  0,     0.000,     0.000,    0,'LD_INDSTRY_6','LOAD_100006                             '
   201,'SC',   1,   2,   7,     0.000,     0.000,     0.000,     0.000,     0.000,     0.000,   2,    1,  0,     0.000,     0.000,    0,'LD_INDSTRY_7','LOAD_100007                             '
   203,'1 ',   1,   2,   2,   500.000,   250.000,     0.000,     0.000,     0.000,     0.000,   2,    1,  0,     0.000,     0.000,    0,'LD_INDSTRY_8','LOAD_100008                             '
   205,'1 ',   1,   2,   2,  1800.000,   600.000,     0.000,     0.000,     0.000,     0.000,   2,    1,  0,    75.860,    46.786,    0,'LD_INDSTRY_9','LOAD_100009                             '
   205,'B ',   1,   2,   2,    90.000,     5.000,   110.000,    25.000,    20.000,    10.000,   2,    1,  0,    65.123,    20.456,    1,'            ','LOAD_100010                             '
   205,'C ',   1,   2,   2,    60.000,    15.000,    45.000,     5.000,    35.000,    30.000,   2,    1,  0,    37.000,    13.000,    1,'LD_DSTRBN_1 ','LOAD_100011                             '
   214,'1 ',   1,   2,   2,   500.000,    75.000,     0.000,     0.000,     0.000,     0.000,   2,    1,  0,     0.000,     0.000,    0,'LD_DSTRBN_2 ','LOAD_100012                             '
   215,'U1',   1,   2,   4,     0.000,   140.000,     0.000,     0.000,     0.000,     0.000,   2,    1,  0,     0.000,     0.000,    0,'LD_DSTRBN_3 ','LOAD_100013                             '
   216,'U1',   1,   2,   4,     0.000,    12.000,     0.000,     0.000,     0.000,     0.000,   2,    1,  0,     0.000,     0.000,    0,'LD_DSTRBN_4 ','LOAD_100014                             '
   217,'U1',   1,   2,   4,     0.000,    10.000,     0.000,     0.000,     0.000,     0.000,   2,    1,  0,     0.000,     0.000,    0,'LD_DSTRBN_5 ','LOAD_100015                             '
   218,'U1',   1,   2,   4,     0.000,     9.000,     0.000,     0.000,     0.000,     0.000,   2,    1,  0,     0.000,     0.000,    0,'LD_DSTRBN_6 ','LOAD_100016                             '
  3005,'1 ',   1,   5,   5,   100.000,    50.000,     0.000,     0.000,     0.000,     0.000,   5,    1,  0,     0.000,     0.000,    0,'LD_DSTRBN_7 ','LOAD_100017                             '
  3007,'1 ',   1,   5,   5,   200.000,    75.000,     0.000,     0.000,     0.000,     0.000,   5,    1,  0,     0.000,     0.000,    0,'LD_DSTRBN_8 ','LOAD_100018                             '
  3008,'1 ',   1,   5,   5,   200.000,    75.000,     0.000,     0.000,     0.000,     0.000,   5,    1,  0,     0.000,     0.000,    0,'LD_DSTRBN_9 ','LOAD_100019                             '
  3009,'1 ',   1,   5,   4,     1.100,     0.900,     0.000,     0.000,     0.000,     0.000,   5,    1,  0,     0.000,     0.000,    0,'            ','LOAD_100020                             '
  3010,'1 ',   1,   5,   4,    12.000,     5.000,     0.000,     0.000,     0.000,     0.000,   5,    1,  0,     0.000,     0.000,    0,'            ','                                        '
0 / END OF LOAD DATA, BEGIN FIXED SHUNT DATA
@!   I,'ID',STATUS,  GL,        BL,                'N A M E'
   151,'F1',1,     5.000,  -400.000,'FXSH_200001                             '
   151,'F2',1,     3.000,  -400.000,'FXSH_200002                             '
   151,'F3',1,     3.120,   200.000,'FXSH_200003                             '
   152,'1 ',1,     1.630,    50.000,'FXSH_200004                             '
   154,'1 ',1,     2.450,   200.000,'FXSH_200005                             '
   201,'1 ',1,     3.670,  -500.000,'FXSH_200006                             '
   203,'1 ',1,    -5.000,    30.000,'FXSH_200007                             '
   203,'2 ',1,     5.000,    20.000,'FXSH_200008                             '
   205,'1 ',1,     2.780,   300.000,'FXSH_200009                             '
   212,'1 ',1,     5.130,   400.000,'FXSH_200010                             '
   213,'1 ',1,     5.140,   400.000,'FXSH_200011                             '
  3021,'1 ',1,     0.000,  1320.000,'FXSH_200012                             '
  3022,'1 ',1,     0.000,  1080.000,'                                        '
0 / END OF FIXED SHUNT DATA, BEGIN VOLTAGE DROOP CONTROL DATA
@!'NAME',                              STATUS,REGBUS,       QDB,      QMIN,      QMAX, VDBLOW,VDBHIGH,  VLOW,   VHIGH
'VLTDRP_A                                ', 1,     0,    10.120,   -50.000,   100.000,0.97000,1.03000,0.95000,1.05000
'VLTDRP_B                                ', 1,   201,    35.140,   -25.000,   255.000,0.98500,1.02400,0.96300,1.04200
'VLTDRP_C                                ', 1,   151,    15.130,   -70.000,   155.000,0.98000,1.02000,0.96000,1.04000
'VLTDRP_D                                ', 1,     0,    57.150,   -50.000,   100.000,0.97000,1.03000,0.95000,1.05000
0 / END OF VOLTAGE DROOP CONTROL DATA, BEGIN GENERATOR DATA
@!   I,'ID',      PG,        QG,        QT,        QB,     VS,    IREG,NREG,     MBASE,     ZR,         ZX,         RT,         XT,     GTAP,STAT, RMPCT,      PT,        PB,BASLOD,O1,    F1,  O2,    F2,  O3,    F3,  O4,    F4,WMOD, WPF          'DROOPNAME'                                      'N A M E'
   101,'1 ',   750.000,   163.336,   243.750,   -37.500,1.01000,   101,   0,   900.000, 1.00000E-2, 3.00000E-1, 0.00000E+0, 0.00000E+0,1.00000,1,  100.0,   800.000,    50.000, 1,   1,0.1289,   2,0.2524,   3,0.1031,   4,0.5156, 0, 0.000,'                                        ','CONVENIONAL_1                           '
   102,'1 ',   650.000,   150.015,   406.250,   -62.500,1.01000,   102,   0,   950.000, 1.05000E-2, 3.20000E-1, 0.00000E+0, 0.00000E+0,1.00000,1,  100.0,   700.000,    33.000, 2,   1,0.3647,   2,0.1838,   3,0.0751,   4,0.3764, 0, 0.000,'                                        ','CONVENIONAL_2                           '
   206,'1 ',   800.000,   283.913,   600.000,     0.000,1.00000,   206,   0,  1000.000, 1.06000E-2, 2.51000E-1, 0.00000E+0, 0.00000E+0,1.00000,1,  100.0,   850.000,    50.000, 3,   1,0.1034,   2,0.4006,   3,0.0825,   4,0.4135
   211,'1 ',   600.000,    17.304,   583.333,   -77.778,1.00000,   211,   0,   725.000, 1.08000E-2, 2.62000E-1, 0.00000E+0, 0.00000E+0,1.00000,1,  100.0,   616.000,    30.000, 0,   1,0.1423,   2,0.2210,   3,0.1842,   4,0.4525, 1, 1.000,'                                        ','RENEWABLE_Q_FROM_QT_QB_1                '
   301,'1 ',   996.884,   327.660,   327.660,   327.660,1.00000,   301,   0,  1067.000, 1.09000E-2, 2.30000E-1, 1.40000E-2, 1.26000E-1,1.02500,1,   98.0,  1010.000,   320.000, 0,   1,0.1118,   2,0.2184,   3,0.0893,   4,0.5805, 3, 0.950,'                                        ','RENEWABLE_Q_FROM_MQ_WPF_1               '
   301,'2 ',   996.884,   285.481,   710.000,  -600.000,1.00000,   301,   0,  1070.000, 1.10000E-2, 2.40000E-1, 1.10000E-2, 1.27000E-1,1.02600,1,   98.0,  1011.000,   321.000, 0,   1,0.1173,   2,0.3200,   3,0.0936,   4,0.4691
   301,'3 ',   996.884,   285.481,   720.000,  -600.000,1.00000,   301,   0,  1075.000, 8.00000E-3, 2.50000E-1, 1.20000E-2, 1.28000E-1,1.02700,1,   98.0,  1012.000,   322.000, 0,   1,0.1260,   2,0.2268,   3,0.1827,   4,0.4644
   401,'1 ',   321.000,   142.325,   600.000,  -100.000,1.00000,   401,   0,   600.000, 1.23000E-2, 2.22300E-1, 0.00000E+0, 0.00000E+0,1.00000,1,   90.0,   350.000,    25.000, 0,   1,0.1625,   2,0.2423,   3,0.0990,   4,0.4962, 4, 1.000,'                                        ','INFEED_QG_CONSTANT_1                    '
   402,'1 ',   321.000,   142.325,   610.000,  -110.000,1.00000,   402,   0,   610.000, 4.50000E-3, 2.43200E-1, 0.00000E+0, 0.00000E+0,1.00000,1,   91.0,   351.000,    26.000, 0,   1,0.1588,   2,0.2117,   3,0.1959,   4,0.4335, 4, 1.000,'                                        ','INFEED_QG_CONSTANT_2                    '
  3011,'1 ',  1142.017,   132.446,   600.000,  -100.000,1.00000,  3011,   0,  1050.000, 7.60000E-3, 3.54300E-1, 0.00000E+0, 0.00000E+0,1.00000,1,   92.0,  1400.000,   100.000, 0,   1,0.1452,   2,0.1926,   3,0.2677,   4,0.3945, 0, 0.000,'VLTDRP_D                                ','CONVENIONAL_3                           '
  3018,'1 ',   400.000,     0.000,    80.000,     0.000,0.99000,  3018,   0,   530.000, 8.70000E-2, 3.56300E-1, 0.00000E+0, 0.00000E+0,1.00000,1,   92.5,   500.000,    50.000, 0,   1,0.1043,   2,0.2037,   3,0.2749,   4,0.4171
  3018,'2 ',   100.000,    -0.785,    75.000,   -75.000,0.99000,  3018,   0,   120.000, 2.40000E-2, 3.55300E-1, 0.00000E+0, 0.00000E+0,1.00000,1,   92.5,   110.000,    20.000, 0,   1,0.3003,   2,0.1358,   3,0.2857,   4,0.2782
0 / END OF GENERATOR DATA, BEGIN SWITCHING DEVICE RATING SET DATA
@!                'N A M E'                 ,                         'DESCRIPTION'                     ,   RATE1,   RATE2,   RATE3,   RATE4,   RATE5,   RATE6,   RATE7,   RATE8,   RATE9,  RATE10,  RATE11,  RATE12
  'SWD_AIR_BLAST_AXIAL                     ', 'BREAKERS IN REGION H AIR_BLAST_AXIAL', 6801.01, 6802.02, 6803.03, 6804.04, 6805.05, 6806.06, 6807.07, 6808.08, 6809.09, 6810.10, 6811.11, 6812.12
  'SWD_AIR_BLAST_CROSS                     ', 'BREAKERS IN REGION I AIR_BLAST_CROSS', 3701.01, 3702.02, 3703.03, 3704.04, 3705.05, 3706.06, 3707.07, 3708.08, 3709.09, 3710.10, 3711.11, 3712.12
  'SWD_AIR_BLAST_RADIAL                    ', 'BREAKERS IN REGION J AIR_BLAST_RADIAL', 701.010, 702.020, 703.030, 704.040, 705.050, 706.060, 707.070, 708.080, 709.090, 710.100, 711.110, 712.120
  'SWD_BLUE_SF6_FREE                       ', 'BREAKERS IN REGION K BLUE_SF6_FREE', 401.010, 402.020, 403.030, 404.040, 405.050, 406.060, 407.070, 408.080, 409.090, 410.100, 411.110, 412.120
  'SWD_OIL_BULK_IMPULSE                    ', 'BREAKERS IN REGION G OIL_BULK_IMPULSE', 1701.01, 1702.02, 1703.03, 1704.04, 1705.05, 1706.06, 1707.07, 1708.08, 1709.09, 1710.10, 1711.11, 1712.12
  'SWD_OIL_BULK_PLAIN                      ', 'BREAKERS IN REGION E OIL_BULK_PLAIN', 1501.01, 1502.02, 1503.03, 1504.04, 1505.05, 1506.06, 1507.07, 1508.08, 1509.09, 1510.10, 1511.11, 1512.12
  'SWD_OIL_BULK_PRESSURE                   ', 'BREAKERS IN REGION F OIL_BULK_PRESSURE', 2201.01, 2202.02, 2203.03, 2204.04, 2205.05, 2206.06, 2207.07, 2208.08, 2209.09, 2210.10, 2211.11, 2212.12
  'SWD_SF6_DOUBLEE_PUFFER                  ', 'BREAKERS IN REGION C SF6_DOUBLEE_PUFFER', 5001.01, 5002.02, 5003.03, 5004.04, 5005.05, 5006.06, 5007.07, 5008.08, 5009.09, 5010.10, 5011.11, 5012.12
  'SWD_SF6_NO_PUFFER                       ', 'BREAKERS IN REGION D SF6_NO_PUFFER', 2001.01, 2002.02, 2003.03, 2004.04, 2005.05, 2006.06, 2007.07, 2008.08, 2009.09, 2010.10, 2011.11, 2012.12
  'SWD_SF6_SINGLE_PUFFER                   ', 'BREAKERS IN REGION A SF6_SINGLE_PUFFER', 4001.01, 4002.02, 4003.03, 4004.04, 4005.05, 4006.06, 4007.07, 4008.08, 4009.09, 4010.10, 4011.11, 4012.12
  'SWD_VACUUM_FIXED                        ', 'BREAKERS IN REGION B VACUUM_FIXED', 3001.01, 3002.02, 3003.03, 3004.04, 3005.05, 3006.06, 3007.07, 3008.08, 3009.09, 3010.10, 3011.11, 3012.12
  'SWD_VACUUM_MOVING                       ', 'BREAKERS IN REGION C VACUUM_MOVING', 6001.01, 6002.02, 6003.03, 6004.04, 6005.05, 6006.06, 6007.07, 6008.08, 6009.09, 6010.10, 6011.11, 6012.12
0 / END OF SWITCHING DEVICE RATING SET DATA, BEGIN BRANCH DATA
@!   I,     J,'CKT',      R,           X,       B,                   'N A M E'                 ,  RATE1,  RATE2,  RATE3,  RATE4,  RATE5,  RATE6,  RATE7,  RATE8,  RATE9, RATE10, RATE11, RATE12,   GI,      BI,      GJ,      BJ,STAT,MET, LEN,  O1,  F1,    O2,  F2,    O3,  F3,    O4,  F4
   151,   152,'1 ', 2.60000E-03, 4.60000E-02,3.50000,'BRANCH_FROM__151_TO__152___CIRCUIT_ID__1',1200.00,1202.12,1203.13,1204.14,1205.15,1206.16,1207.17,1208.18,1209.19,1210.20,1211.21,1212.22, 0.01000,-0.25000, 0.01100,-0.15000, 1, 0, 2,150.00,   1,0.2000,   2,0.3000,   3,0.4000,   4,0.1000
   151,   152,'2 ', 2.61000E-03, 4.61000E-02,3.51000,'BRANCH_FROM__151_TO__152___CIRCUIT_ID__2',1205.00,1207.12,1208.13,1209.14,1210.15,1211.16,1212.17,1213.18,1214.19,1215.20,1216.21,1217.22, 0.01300,-0.25100, 0.01200,-0.02000, 1, 0, 2,149.00,   5,0.2315,   1,0.3056,   2,0.3704,   3,0.0926
   152,  3004,'1 ', 3.00000E-03, 3.00000E-02,2.50000,'BRANCH_FROM__152_TO_3004___CIRCUIT_ID__1',1207.00,1209.12,1210.13,1211.14,1212.15,1213.16,1214.17,1215.18,1216.19,1217.20,1218.21,1219.22, 0.00000, 0.00000, 0.00000, 0.00000, 1, 0, 2,201.00,   5,0.2379,   1,0.3033,   2,0.3667,   3,0.0922
   152, 70202,'1 ', 8.00000E-04, 1.00000E-02,0.95000,'BRANCH_FROM__152_TO__70202_CIRCUIT_ID__1',1207.00,1209.12,1210.13,1211.14,1212.15,1213.16,1214.17,1215.18,1216.19,1217.20,1218.21,1219.22, 0.00000, 0.00000, 0.00000, 0.00000, 1, 0, 1,200.00,   1,0.3939,   2,0.2273,   3,0.3030,   4,0.0758
   153,   154,'2 ', 6.00000E-03, 5.40000E-02,0.15000,'BRANCH_FROM__153_TO__154___CIRCUIT_ID__2', 350.00, 352.12, 353.13, 354.14, 355.15, 356.16, 357.17, 358.18, 359.19, 360.20, 361.21, 362.22, 0.00000, 0.00000, 0.00000, 0.00000, 1, 0, 2, 80.00,   2,0.2727,   3,0.2727,   4,0.3636,   5,0.0909
   154,   155,'1 ', 5.00000E-03, 4.50000E-02,0.10000,'BRANCH_FROM__154_TO__155___CIRCUIT_ID__1', 400.00, 402.12, 403.13, 404.14, 405.15, 406.16, 407.17, 408.18, 409.19, 410.20, 411.21, 412.22, 0.00000, 0.00000, 0.00000, 0.00000, 1, 0, 1, 81.00,   5,0.1914,   1,0.2535,   2,0.3065,   3,0.2486
   154,   203,'1 ', 4.00000E-03, 4.00000E-02,0.10000,'BRANCH_FROM__154_TO__203___CIRCUIT_ID__1', 400.00, 402.12, 403.13, 404.14, 405.15, 406.16, 407.17, 408.18, 409.19, 410.20, 411.21, 412.22, 0.00000, 0.00000, 0.00000, 0.00000, 1, 0, 2,100.00,   2,0.2000,   3,0.3000,   4,0.4000,   5,0.1000
   154,   205,'1 ', 3.30000E-04, 3.33000E-03,0.09000,'BRANCH_FROM__154_TO__205___CIRCUIT_ID__1', 600.00, 602.12, 603.13, 604.14, 605.15, 606.16, 607.17, 608.18, 609.19, 610.20, 611.21, 612.22, 0.00000, 0.00000, 0.00000, 0.00000, 1, 0, 2,120.00,   1,0.1667,   2,0.2500,   3,0.3333,   4,0.2500
   154,  3008,'1 ', 2.70000E-03, 2.20000E-02,0.30000,'BRANCH_FROM__154_TO_3008___CIRCUIT_ID__1', 800.00, 802.12, 803.13, 804.14, 805.15, 806.16, 807.17, 808.18, 809.19, 810.20, 811.21, 812.22, 0.00000, 0.00000, 0.00000, 0.00000, 1, 0, 2,119.00,   5,0.1925,   1,0.2550,   2,0.3083,   3,0.2442
   201,   202,'1 ', 2.00000E-03, 2.50000E-02,2.00000,'BRANCH_FROM__201_TO__202___CIRCUIT_ID__1',1200.00,1202.12,1203.13,1204.14,1205.15,1206.16,1207.17,1208.18,1209.19,1210.20,1211.21,1212.22, 0.00000, 0.00000, 0.00000, 0.00000, 1, 0, 2,300.00,   2,0.1905,   3,0.2857,   4,0.3810,   5,0.1429
   201,   207,'C1', 1.50000E-03, 1.50000E-02,1.25000,'BRANCH_FROM__201_TO__207___CIRCUIT_ID_C1',1200.00,1202.12,1203.13,1204.14,1205.15,1206.16,1207.17,1208.18,1209.19,1210.20,1211.21,1212.22, 0.00000, 0.00000, 0.00000, 0.00000, 1, 0, 2,250.00,   1,0.2500,   2,0.3750,   3,0.2500,   4,0.1250
   202, 70202,'1 ', 0.00000E+00,-1.00000E-03,0.00000,'BRANCH_FROM__202_TO_70202_CIRCUIT_ID__1 ',1207.00,1209.12,1210.13,1211.14,1212.15,1213.16,1214.17,1215.18,1216.19,1217.20,1218.21,1219.22, 0.00000, 0.00000, 0.00000, 0.00000, 1, 0, 1,  1.00,   1,0.3939,   2,0.2273,   3,0.3030,   4,0.0758
   203,   205,'1 ', 5.00000E-03, 4.50000E-02,0.08000,'BRANCH_FROM__203_TO__205___CIRCUIT_ID__1', 200.00, 202.12, 203.13, 204.14, 205.15, 206.16, 207.17, 208.18, 209.19, 210.20, 211.21, 212.22, 0.00000, 0.00000, 0.00000, 0.00000, 1, 0, 1, 70.00,   5,0.1925,   1,0.2550,   2,0.3083,   3,0.2442
   204,   207,'C2', 1.50000E-03, 1.50000E-02,1.25000,'BRANCH_FROM__204_TO__207___CIRCUIT_ID_C2',1200.00,1202.12,1203.13,1204.14,1205.15,1206.16,1207.17,1208.18,1209.19,1210.20,1211.21,1212.22, 0.00000, 0.00000, 0.00000, 0.00000, 1, 0, 2,300.00,   2,0.2000,   3,0.3000,   4,0.4000,   5,0.1000
   205,   212,'1 ', 0.00000E+00, 1.00000E-02,0.00000,'BRANCH_FROM__205_TO__212___CIRCUIT_ID__1',1250.00,1252.12,1253.13,1254.14,1255.15,1256.16,1257.17,1258.18,1259.19,1260.20,1261.21,1262.22, 0.00000, 0.00000, 0.00000, 0.00000, 1, 0, 1, 71.00,   1,0.2000,   2,0.3000,   3,0.4000,   4,0.1000
   205,   214,'2 ', 2.00000E-03, 2.50000E-02,2.00000,'BRANCH_FROM__205_TO__214___CIRCUIT_ID__2',1200.00,1202.12,1203.13,1204.14,1205.15,1206.16,1207.17,1208.18,1209.19,1210.20,1211.21,1212.22, 0.00000, 0.00000, 0.00000, 0.00000, 1, 0, 2,100.00,   5,0.2100,   1,0.2782,   2,0.3364,   3,0.1755
   205,   216,'3 ', 5.00000E-03, 4.50000E-02,0.08000,'BRANCH_FROM__205_TO__216___CIRCUIT_ID__3', 200.00, 202.12, 203.13, 204.14, 205.15, 206.16, 207.17, 208.18, 209.19, 210.20, 211.21, 212.22, 0.00000, 0.00000, 0.00000, 0.00000, 1, 0, 2, 81.00,   2,0.1818,   3,0.2727,   4,0.3636,   5,0.1818
   205,   217,'4 ', 5.00000E-03, 4.50000E-02,0.08000,'BRANCH_FROM__205_TO__217___CIRCUIT_ID__4', 200.00, 202.12, 203.13, 204.14, 205.15, 206.16, 207.17, 208.18, 209.19, 210.20, 211.21, 212.22, 0.00000, 0.00000, 0.00000, 0.00000, 1, 0, 2, 80.00,   1,0.1667,   2,0.2500,   3,0.3333,   4,0.2500
   205,   218,'5 ', 5.00000E-03, 4.50000E-02,0.08000,'BRANCH_FROM__205_TO__218___CIRCUIT_ID__5', 200.00, 202.12, 203.13, 204.14, 205.15, 206.16, 207.17, 208.18, 209.19, 210.20, 211.21, 212.22, 0.00000, 0.00000, 0.00000, 0.00000, 1, 0, 2, 59.00,   5,0.1650,   1,0.2186,   2,0.2643,   3,0.3521
   213,   214,'1 ', 0.00000E+00, 1.00000E-02,0.00000,'BRANCH_FROM__213_TO__214___CIRCUIT_ID__1',1250.00,1252.12,1253.13,1254.14,1255.15,1256.16,1257.17,1258.18,1259.19,1260.20,1261.21,1262.22, 0.00000, 0.00000, 0.00000, 0.00000, 1, 0, 2,  0.50,   2,0.1429,   3,0.2143,   4,0.2857,   5,0.3571
  3001,703003,'1 ', 0.00000E+00, 8.00000E-03,0.00000,'BRANCH_FROM_3001_TO_703003_CIRCUIT_ID__1', 320.00, 322.12, 323.13, 324.14, 325.15, 326.16, 327.17, 328.18, 329.19, 330.20, 331.21, 332.22, 0.00000, 0.00000, 0.00000, 0.00000, 1, 0, 2, 70.00,   1,0.1639,   2,0.2459,   3,0.3279,   4,0.2623
  3002,  3004,'1 ', 6.00000E-03, 5.40000E-02,0.09000,'BRANCH_FROM_3002_TO_3004___CIRCUIT_ID__1', 330.00, 332.12, 333.13, 334.14, 335.15, 336.16, 337.17, 338.18, 339.19, 340.20, 341.21, 342.22, 0.00000, 0.00000, 0.00000, 0.00000, 1, 0, 2,200.00,   5,0.1925,   1,0.2550,   2,0.3083,   3,0.2442
  3003,  3005,'1 ', 6.00000E-03, 5.40000E-02,0.09000,'BRANCH_FROM_3003_TO_3005___CIRCUIT_ID__1', 340.00, 342.12, 343.13, 344.14, 345.15, 346.16, 347.17, 348.18, 349.19, 350.20, 351.21, 352.22, 0.00000, 0.00000, 0.00000, 0.00000, 1, 0, 2, 90.00,   2,0.2000,   3,0.3000,   4,0.4000,   5,0.1000
  3003,703003,'1 ', 0.00000E+00,-9.00000E-03,0.00000,'BRANCH_FROM_3003_TO_703003_CIRCUIT_ID__1', 350.00, 352.12, 353.13, 354.14, 355.15, 356.16, 357.17, 358.18, 359.19, 360.20, 361.21, 362.22, 0.00000, 0.00000, 0.00000, 0.00000, 1, 0, 2,  1.00,   5,0.1925,   1,0.2550,   2,0.3083,   3,0.2442
  3003,703005,'2 ', 6.00000E-03, 5.40000E-02,0.09000,'BRANCH_FROM_3003_TO_703005_CIRCUIT_ID__2', 360.00, 362.12, 363.13, 364.14, 365.15, 366.16, 367.17, 368.18, 369.19, 370.20, 371.21, 372.22, 0.00000, 0.00000, 0.00000, 0.00000, 1, 0, 2, 90.00,   1,0.1333,   2,0.2000,   3,0.2667,   4,0.4000
  3005,  3006,'1 ', 3.50000E-03, 3.00000E-02,0.07000,'BRANCH_FROM_3005_TO_3006___CIRCUIT_ID__1', 370.00, 372.12, 373.13, 374.14, 375.15, 376.16, 377.17, 378.18, 379.19, 380.20, 381.21, 382.22, 0.00000, 0.00000, 0.00000, 0.00000, 1, 0, 2, 70.00,   5,0.1650,   1,0.2186,   2,0.2643,   3,0.3521
  3005,  3007,'1 ', 3.00000E-03, 2.50000E-02,0.06000,'BRANCH_FROM_3005_TO_3007___CIRCUIT_ID__1', 380.00, 382.12, 383.13, 384.14, 385.15, 386.16, 387.17, 388.18, 389.19, 390.20, 391.21, 392.22, 0.00000, 0.00000, 0.00000, 0.00000, 1, 0, 2, 80.00,   2,0.1527,   3,0.2290,   4,0.3053,   5,0.3130
  3005,  3008,'1 ', 6.00000E-03, 5.00000E-02,0.12000,'BRANCH_FROM_3005_TO_3008___CIRCUIT_ID__1', 390.00, 392.12, 393.13, 394.14, 395.15, 396.16, 397.17, 398.18, 399.19, 400.20, 401.21, 402.22, 0.00000, 0.00000, 0.00000, 0.00000, 0, 0, 2, 60.00,   1,0.1802,   2,0.2703,   3,0.3604,   4,0.1892
  3005,703005,'2 ', 0.00000E+00,-6.50000E-03,0.00000,'BRANCH_FROM_3005_TO_703005_CIRCUIT_ID__2', 500.00, 502.12, 503.13, 504.14, 505.15, 506.16, 507.17, 508.18, 509.19, 510.20, 511.21, 512.22, 0.00000, 0.00000, 0.00000, 0.00000, 1, 0, 2,  1.00,   1,0.1333,   2,0.2000,   3,0.2667,   4,0.4000
  3007,  3008,'1 ', 3.00000E-03, 2.50000E-02,0.06000,'BRANCH_FROM_3007_TO_3008___CIRCUIT_ID__1', 510.00, 512.12, 513.13, 514.14, 515.15, 516.16, 517.17, 518.18, 519.19, 520.20, 521.21, 522.22, 0.00000, 0.00000, 0.00000, 0.00000, 1, 0, 2, 60.00,   5,0.1858,   1,0.2462,   2,0.4023,   3,0.1657
  3008,  3009,'1 ', 3.00000E-03, 2.50000E-02,0.06000,'BRANCH_FROM_3008_TO_3009___CIRCUIT_ID__1',  25.00,  27.12,  28.13,  29.14,  30.15,  31.16,  32.17,  33.18,  34.19,  35.20,  36.21,  37.22, 0.00000, 0.00000, 0.00000, 0.00000, 1, 0, 2, 60.00,   1,0.1797,   2,0.2695,   3,0.3594,   4,0.1914
0 / END OF BRANCH DATA, BEGIN SYSTEM SWITCHING DEVICE DATA
@!   I,     J,'CKT',          X, 'RATING SET NAME'                       , STAT,NSTAT,  MET,STYPE,'NAME'
   151,   201,'*1', 1.00000E-04, 'SWD_SF6_DOUBLEE_PUFFER                  ',    1,    1,    2,    3, 'SWD-DEVICE-REGION-X-SF6                 '
   153,  3006,'@1', 1.00000E-04, 'SWD_OIL_BULK_PRESSURE                   ',    1,    1,    2,    2, 'SWD-DEVICE-REGION-Y-BULK OIL PRESSURE   '
0 / END OF SYSTEM SWITCHING DEVICE DATA, BEGIN TRANSFORMER DATA
@!   I,     J,     K,'CKT',CW,CZ,CM,     MAG1,        MAG2,NMETR,               'N A M E',               STAT,O1,  F1,    O2,  F2,    O3,  F3,    O4,  F4,     'VECGRP', ZCOD
@!   R1-2,       X1-2, SBASE1-2,     R2-3,       X2-3, SBASE2-3,     R3-1,       X3-1, SBASE3-1, VMSTAR,   ANSTAR
@!WINDV1, NOMV1,   ANG1, RATE1-1, RATE1-2, RATE1-3, RATE1-4, RATE1-5, RATE1-6, RATE1-7, RATE1-8, RATE1-9,RATE1-10,RATE1-11,RATE1-12,COD1,CONT1,NOD1,  RMA1,   RMI1,   VMA1,   VMI1, NTP1,TAB1, CR1,    CX1,  CNXA1