0,   100.00, 30, 0, 1,  60.00     / PSS(R)E 30 RAW created by rawd30  MON, MAR 31 2025  20:02
TEXAS2K_SERIES24_CASE1_2016SUMMERPEAK
THIS IS A SYNTHETIC POWER SYSTEM MODEL THAT DOES NOT REPRESE
  1001,'ODESSA 2 0  ', 115.0000,1,     0.000,     0.000,   1,   9,0.98799, -27.0289,   1
  1002,'PRESIDIO 2 0', 115.0000,1,     0.000,     0.000,   1,   9,1.02280, -21.7241,   1
  1003,'O DONNELL ~1', 115.0000,1,     0.000,     0.000,   1,   9,1.01279, -24.4193,   1
  1004,'O DONNELL ~2', 230.0000,2,     0.000,     0.000,   1,   9,1.01916, -25.9937,   1
  1005,'BIG SPRING~8', 115.0000,1,     0.000,     0.000,   1,   9,1.01072, -20.5321,   1
  1006,'BIG SPRING~9',  13.8000,2,     0.000,     0.000,   1,   9,1.00431, -18.3788,   1
  1007,'VAN HORN 0  ', 115.0000,1,     0.000,     0.000,   1,   9,1.03000, -22.1833,   1
  1008,'IRAAN 2 0   ', 115.0000,1,     0.000,     0.000,   1,   9,1.02503, -11.8731,   1
  1009,'IRAAN 2 1   ',  13.8000,2,     0.000,     0.000,   1,   9,1.01506,  -8.6148,   1
  1010,'PRESIDIO 1 0', 115.0000,1,     0.000,     0.000,   1,   9,1.03000, -20.4240,   1
  1011,'PRESIDIO 1 1',  22.0000,2,     0.000,     0.000,   1,   9,1.03022, -18.6711,   1
  1012,'SANDERSON 0 ', 115.0000,1,     0.000,     0.000,   1,   9,1.02271, -27.3425,   1
  1013,'MONAHANS 2 0', 115.0000,1,     0.000,     0.000,   1,   9,1.00914, -19.3278,   1
  1014,'GRANDFALLS 0', 115.0000,1,     0.000,     0.000,   1,   9,1.01556, -15.6312,   1
  1015,'MARFA 0     ', 115.0000,1,     0.000,     0.000,   1,   9,1.03193, -21.8702,   1
  1016,'GARDEN CIT~1', 115.0000,1,     0.000,     0.000,   1,   9,1.01903, -19.6693,   1
  1017,'ODESSA 4 0  ', 115.0000,1,     0.000,     0.000,   1,   9,0.98747, -25.6283,   1
  1018,'NOTREES 0   ', 115.0000,1,     0.000,     0.000,   1,   9,0.99477, -24.3424,   1
  1019,'MIDLAND 4 0 ', 115.0000,1,     0.000,     0.000,   1,   9,1.00790, -26.6184,   1
  1020,'BIG SPRING~1', 115.0000,1,     0.000,     0.000,   1,   9,1.02760, -19.6541,   1
  1021,'BIG SPRING~2',  13.8000,2,     0.000,     0.000,   1,   9,1.00337, -13.0919,   1
  1022,'O DONNELL ~3', 115.0000,1,     0.000,     0.000,   1,   9,1.01499, -23.6931,   1
  1023,'O DONNELL ~4',  13.8000,2,     0.000,     0.000,   1,   9,1.01000, -14.8048,   1
  1024,'ODESSA 6 0  ', 115.0000,1,     0.000,     0.000,   1,   9,0.99625, -23.2869,   1
  1025,'BIG SPRIN~14', 115.0000,1,     0.000,     0.000,   1,   9,1.02234, -18.6083,   1
  1026,'BIG SPRIN~15',  13.8000,2,     0.000,     0.000,   1,   9,1.00000,  -9.1282,   1
  1027,'MIDLAND 2 0 ', 115.0000,1,     0.000,     0.000,   1,   9,1.01579, -30.2706,   1
  1028,'COAHOMA 0   ', 115.0000,1,     0.000,     0.000,   1,   9,1.01743, -25.5558,   1
  1029,'MIDLAND 3 0 ', 115.0000,1,     0.000,     0.000,   1,   9,1.01089, -29.2501,   1
  1030,'ALPINE 0    ', 115.0000,1,     0.000,     0.000,   1,   9,1.01823, -16.9237,   1
  1031,'FORT DAVIS 0', 115.0000,1,     0.000,     0.000,   1,   9,1.01900, -21.4708,   1
  1032,'MCCAMEY 1 0 ', 115.0000,1,     0.000,     0.000,   1,   9,1.00756, -15.7044,   1
  1033,'MCCAMEY 1 1 ', 230.0000,2,     0.000,     0.000,   1,   9,1.02839, -20.2345,   1
  1034,'BIG SPRING~6', 115.0000,1,     0.000,     0.000,   1,   9,1.00665, -18.6654,   1
  1035,'BIG SPRING~7',  13.8000,2,     0.000,     0.000,   1,   9,1.00000, -15.3762,   1
  1036,'CRANE 0     ', 115.0000,1,     0.000,     0.000,   1,   9,1.00112, -16.0851,   1
  1037,'ODESSA 5 0  ', 115.0000,1,     0.000,     0.000,   1,   9,0.98149, -26.7803,   1
  1038,'FORT STOCK~1', 115.0000,1,     0.000,     0.000,   1,   9,1.02030, -11.0750,   1
  1039,'FORT STOCK~2',  22.0000,2,     0.000,     0.000,   1,   9,1.00000,  -5.7063,   1
  1040,'ANDREWS 0   ', 115.0000,1,     0.000,     0.000,   1,   9,0.99727, -24.6207,   1
  1041,'FORSAN 0    ', 115.0000,1,     0.000,     0.000,   1,   9,1.00512, -19.5510,   1
  1042,'FORSAN 1    ',  13.8000,1,     0.000,     0.000,   1,   9,1.00512, -19.5510,   1
  1043,'FORSAN 2    ',  13.8000,2,     0.000,     0.000,   1,   9,1.00000, -16.3140,   1
  1044,'BIG LAKE 0  ', 115.0000,1,     0.000,     0.000,   1,   9,1.01605, -30.2231,   1
  1045,'MIDLAND 5 0 ', 115.0000,1,     0.000,     0.000,   1,   9,0.98634, -28.7465,   1
  1046,'OZONA 0     ', 115.0000,1,     0.000,     0.000,   1,   9,1.02838, -25.4026,   1
  1047,'MONAHANS 1 0', 115.0000,1,     0.000,     0.000,   1,   9,1.00808, -17.2598,   1
  1048,'MONAHANS 1 1',  18.0000,1,     0.000,     0.000,   1,   9,1.00808, -17.2598,   1
  1049,'MONAHANS 1 2',  18.0000,1,     0.000,     0.000,   1,   9,1.00808, -17.2598,   1
  1050,'MONAHANS 1 3',  18.0000,2,     0.000,     0.000,   1,   9,1.00000, -12.1895,   1
  1051,'MONAHANS 1 4',  18.0000,2,     0.000,     0.000,   1,   9,1.00000, -10.7102,   1
  1052,'MONAHANS 1 5',  18.0000,2,     0.000,     0.000,   1,   9,1.00044, -13.0400,   1
  1053,'MONAHANS 1 6', 230.0000,1,     0.000,     0.000,   1,   9,1.02560, -21.1441,   1
  1054,'STANTON 0   ', 115.0000,1,     0.000,     0.000,   1,   9,1.01396, -27.4108,   1
  1055,'ODONNELL 0  ', 115.0000,1,     0.000,     0.000,   1,   9,1.00605, -25.2398,   1
  1056,'LENORAH 0   ', 115.0000,1,     0.000,     0.000,   1,   9,1.03000, -26.4366,   1
  1057,'LENORAH 1   ',  18.0000,1,     0.000,     0.000,   1,   9,1.03000, -26.4366,   1
  1058,'IRAAN 3 0   ', 115.0000,1,     0.000,     0.000,   1,   9,1.02630, -14.3378,   1
  1059,'IRAAN 3 1   ',  22.0000,1,     0.000,     0.000,   1,   9,1.02630, -14.3378,   1
  1060,'IRAAN 3 2   ',  22.0000,1,     0.000,     0.000,   1,   9,1.02630, -14.3378,   1
  1061,'BIG SPRIN~10', 115.0000,1,     0.000,     0.000,   1,   9,1.01253, -21.6894,   1
  1062,'BIG SPRIN~11',  13.8000,1,     0.000,     0.000,   1,   9,1.01253, -21.6894,   1
  1063,'BIG SPRIN~12',  13.8000,1,     0.000,     0.000,   1,   9,1.01253, -21.6894,   1
  1064,'ODESSA 3 0  ', 115.0000,1,     0.000,     0.000,   1,   9,0.98076, -28.4337,   1
  1065,'BIG SPRING~4', 115.0000,1,     0.000,     0.000,   1,   9,1.00795, -19.4107,   1
  1066,'BIG SPRING~5',  13.8000,2,     0.000,     0.000,   1,   9,1.00000, -11.8961,   1
  1067,'BIG SPRIN~13', 115.0000,1,     0.000,     0.000,   1,   9,1.00213, -20.1005,   1
  1068,'MIDLAND 1 0 ', 115.0000,1,     0.000,     0.000,   1,   9,0.98752, -20.3854,   1
  1069,'IRAAN 1 0   ', 115.0000,1,     0.000,     0.000,   1,   9,1.02783, -11.9403,   1
  1070,'IRAAN 1 1   ',  13.8000,2,     0.000,     0.000,   1,   9,1.04000,  -7.4471,   1
  1071,'ODESSA 1 0  ', 115.0000,1,     0.000,     0.000,   1,   9,0.99542, -25.7808,   1
  1072,'ODESSA 1 1  ',  18.0000,2,     0.000,     0.000,   1,   9,1.01000, -16.4397,   1
  1073,'ODESSA 1 2  ',  18.0000,2,     0.000,     0.000,   1,   9,1.01000, -10.0624,   1
  1074,'ODESSA 1 3  ',  18.0000,2,     0.000,     0.000,   1,   9,1.01000, -12.1006,   1
  1075,'ODESSA 1 4  ',  18.0000,2,     0.000,     0.000,   1,   9,1.01000, -14.8564,   1
  1076,'ODESSA 1 5  ',  18.0000,1,     0.000,     0.000,   1,   9,0.99542, -25.7808,   1
  1077,'ODESSA 1 6  ',  18.0000,1,     0.000,     0.000,   1,   9,0.99542, -25.7808,   1
  1078,'ODESSA 1 7  ',  18.0000,2,     0.000,     0.000,   1,   9,1.01000, -15.3773,   1
  1079,'ODESSA 1 8  ', 500.0000,2,     0.000,     0.000,   1,   9,1.04330, -42.7843,   1
  1080,'ODESSA 1 9  ',  18.0000,2,     0.000,     0.000,   1,   9,1.01000, -14.7889,   1
  1081,'ODESSA 1 10 ', 230.0000,1,     0.000,     0.000,   1,   9,1.03000, -22.4631,   1
  1082,'FORT STOCK~3', 115.0000,2,     0.000,     0.000,   1,   9,1.02369,  -9.2807,   1
  1083,'FORT STOCK~4', 115.0000,1,     0.000,     0.000,   1,   9,1.02273, -13.3745,   1
  1084,'BIG SPRING~3', 115.0000,2,     0.000,     0.000,   1,   9,1.03040, -20.8705,   1
  1085,'KERMIT 0    ', 115.0000,1,     0.000,     0.000,   1,   9,1.01111, -19.2810,   1
  1086,'PECOS 0     ', 115.0000,1,     0.000,     0.000,   1,   9,1.01816, -21.4912,   1
  1087,'SHEFFIELD 0 ', 115.0000,1,     0.000,     0.000,   1,   9,1.03000, -19.0313,   1
  1088,'MCCAMEY 2 0 ', 115.0000,2,     0.000,     0.000,   1,   9,1.00000, -15.5756,   1
  1089,'LAMESA 0    ', 115.0000,1,     0.000,     0.000,   1,   9,0.98796, -27.6722,   1
  1090,'GOLDSMITH 0 ', 115.0000,2,     0.000,     0.000,   1,   9,1.02000, -20.1888,   1
  1091,'RALLS 2 0   ', 161.0000,1,     0.000,     0.000,   1,   9,1.02892, -40.3126,   1
  2001,'PARIS 3 0   ', 161.0000,1,     0.000,     0.000,   2,  11,1.00634, -61.1197,   1
  2002,'SAVOY 0     ', 500.0000,1,     0.000,     0.000,   2,  11,1.01654, -62.2267,   1
  2003,'SAVOY 1     ', 161.0000,1,     0.000,     0.000,   2,  11,1.01541, -64.4263,   1
  2004,'SAVOY 2     ',  13.8000,1,     0.000,     0.000,   2,  11,1.01654, -62.2267,   1
  2005,'SAVOY 3     ',  13.8000,1,     0.000,     0.000,   2,  11,1.01654, -62.2267,   1
  2006,'SAVOY 4     ',  13.8000,1,     0.000,     0.000,   2,  11,1.01654, -62.2267,   1
  2007,'HONEY GROV~1', 161.0000,1,     0.000,     0.000,   2,  11,1.00753, -60.8640,   1
  2008,'MEMPHIS 0   ', 161.0000,1,     0.000,     0.000,   2,  10,1.01968, -41.3022,   1
  2009,'IOWA PARK 0 ', 161.0000,1,     0.000,     0.000,   2,  11,1.03000, -50.6716,   1
  2010,'VERNON 2 0  ', 161.0000,1,     0.000,     0.000,   2,  10,1.03000, -42.9943,   1
  2011,'PANHANDLE ~2', 500.0000,1,     0.000,     0.000,   2,  10,1.04130, -39.9544,   1
  2012,'PANHANDLE ~3', 161.0000,1,     0.000,     0.000,   2,  10,1.03045, -37.9591,   1
  2013,'PANHANDLE ~4',  18.0000,2,     0.000,     0.000,   2,  10,1.03296, -37.6255,   1
  2014,'CHILDRESS 0 ', 161.0000,1,     0.000,     0.000,   2,  10,1.01833, -42.1065,   1
  2015,'FORESTBURG 0', 161.0000,1,     0.000,     0.000,   2,  11,1.01668, -64.4776,   1
  2016,'SHERMAN 3 0 ', 161.0000,1,     0.000,     0.000,   2,  11,1.01530, -70.2657,   1
  2017,'PANHANDLE ~7', 500.0000,1,     0.000,  -100.000,   2,  10,1.03331, -41.1163,   1
  2018,'PANHANDLE ~8', 161.0000,1,     0.000,     0.000,   2,  10,1.03006, -40.0704,   1
  2019,'PANHANDLE ~9',  20.0000,1,     0.000,     0.000,   2,  10,1.03331, -41.1163,   1
  2020,'WICHITA F~12', 161.0000,1,     0.000,     0.000,   2,  11,1.00859, -50.3620,   1
  2021,'PARIS 2 0   ', 500.0000,1,     0.000,     0.000,   2,  11,1.01795, -57.9432,   1
  2022,'PARIS 2 1   ', 161.0000,1,     0.000,     0.000,   2,  11,1.01440, -59.8052,   1
  2023,'PARIS 2 2   ',  13.8000,2,     0.000,     0.000,   2,  11,1.02000, -56.3786,   1
  2024,'PARIS 2 3   ',  13.8000,2,     0.000,     0.000,   2,  11,1.02000, -55.7142,   1
  2025,'WICHITA F~10', 161.0000,1,     0.000,     0.000,   2,  11,1.00658, -49.6732,   1
  2026,'WHEELER 0   ', 161.0000,1,     0.000,     0.000,   2,  10,1.02951, -38.9887,   1
  2027,'DEPORT 0    ', 161.0000,1,     0.000,     0.000,   2,  11,1.00695, -61.5264,   1
  2028,'WICHITA FA~9', 161.0000,1,     0.000,     0.000,   2,  11,1.00875, -52.2630,   1
  2029,'SILVERTON 0 ', 161.0000,1,     0.000,     0.000,   2,  10,1.02405, -41.6683,   1
  2030,'BONHAM 0    ', 161.0000,1,     0.000,     0.000,   2,  11,0.99436, -64.8420,   1
  2031,'MATADOR 0   ', 161.0000,1,     0.000,     0.000,   2,  10,1.02497, -36.8961,   1
  2032,'ARTHUR CIT~1', 161.0000,1,     0.000,     0.000,   2,  11,1.00944, -60.2953,   1
  2033,'LEONARD 0   ', 161.0000,1,     0.000,     0.000,   2,  11,0.99701, -66.1894,   1
  2034,'GORDONVILL~1', 161.0000,1,     0.000,     0.000,   2,  11,1.01306, -69.6689,   1
  2035,'KNOX CITY 0 ', 161.0000,1,     0.000,     0.000,   2,  10,1.02235, -36.8048,   1
  2036,'WICHITA F~13', 161.0000,1,     0.000,     0.000,   2,  11,1.01121, -50.0534,   1
  2037,'LINDSAY 0   ', 161.0000,1,     0.000,     0.000,   2,  11,1.02692, -64.7312,   1
  2038,'ECTOR 0     ', 161.0000,1,     0.000,     0.000,   2,  11,1.01244, -64.8887,   1
  2039,'SUNSET 0    ', 161.0000,1,     0.000,     0.000,   2,  11,1.00253, -62.1015,   1
  2040,'CLARKSVILL~1', 161.0000,1,     0.000,     0.000,   2,  11,1.01205, -60.4725,   1
  2041,'PANHANDLE ~5', 161.0000,1,     0.000,     0.000,   2,  10,1.03136, -35.7668,   1
  2042,'PANHANDLE ~6',  18.0000,2,     0.000,     0.000,   2,  10,1.02280, -33.2083,   1
  2043,'SADLER 0    ', 161.0000,1,     0.000,     0.000,   2,  11,1.01385, -69.9440,   1
  2044,'WHITESBORO 0', 161.0000,1,     0.000,     0.000,   2,  11,1.02155, -66.0259,   1
  2045,'SHEPPARD A~1', 161.0000,1,     0.000,     0.000,   2,  11,1.00808, -50.8045,   1
  2046,'POTTSBORO 0 ', 161.0000,1,     0.000,     0.000,   2,  11,1.01260, -69.3169,   1
  2047,'BELLS 0     ', 161.0000,1,     0.000,     0.000,   2,  11,1.01427, -65.3024,   1
  2048,'CROSBYTON 0 ', 161.0000,1,     0.000,     0.000,   2,  10,1.02921, -39.7142,   1
  2049,'ELECTRA 0   ', 161.0000,1,     0.000,     0.000,   2,  10,1.02496, -46.7431,   1
  2050,'PATTONVILL~1', 161.0000,1,     0.000,     0.000,   2,  11,0.99971, -64.1562,   1
  2051,'HENRIETTA 0 ', 161.0000,1,     0.000,     0.000,   2,  11,1.00507, -57.4983,   1
  2052,'PANHANDLE~13', 161.0000,1,     0.000,     0.000,   2,  10,1.02083, -40.2450,   1
  2053,'BOWIE 0     ', 161.0000,1,     0.000,     0.000,   2,  11,0.99948, -60.2180,   1
  2054,'WICHITA FA~1', 500.0000,1,     0.000,     0.000,   2,  11,1.01154, -48.8438,   1
  2055,'WICHITA FA~2', 161.0000,1,     0.000,     0.000,   2,  11,1.01047, -49.5719,   1
  2056,'WICHITA FA~3',  18.0000,1,     0.000,     0.000,   2,  11,1.01154, -48.8438,   1
  2057,'WICHITA FA~4',  18.0000,2,     0.000,     0.000,   2,  11,0.99945, -45.7034,   1
  2058,'WHITE DEER 0', 161.0000,1,     0.000,     0.000,   2,  10,1.03167, -35.3158,   1
  2059,'WHITE DEER 1',  13.8000,2,     0.000,     0.000,   2,  10,1.02172, -31.9912,   1
  2060,'ROXTON 0    ', 161.0000,1,     0.000,     0.000,   2,  11,1.00271, -62.9200,   1
  2061,'VERNON 1 0  ', 161.0000,1,     0.000,     0.000,   2,  10,1.02570, -43.4658,   1
  2062,'VERNON 1 1  ',  18.0000,2,     0.000,     0.000,   2,  10,1.02000, -41.1693,   1
  2063,'DENISON 2 0 ', 161.0000,1,     0.000,     0.000,   2,  11,1.01371, -68.7181,   1
  2064,'SUMNER 0    ', 161.0000,1,     0.000,     0.000,   2,  11,1.00799, -61.3523,   1
  2065,'GAINESVILL~1', 161.0000,1,     0.000,     0.000,   2,  11,1.03000, -66.3921,   1
  2066,'ASPERMONT 0 ', 161.0000,1,     0.000,     0.000,   2,  10,1.02070, -33.7384,   1
  2067,'WICHITA F~11', 161.0000,1,     0.000,     0.000,   2,  11,1.00396, -49.5182,   1
  2068,'WINDTHORST 0', 161.0000,1,     0.000,     0.000,   2,  11,1.00660, -47.2046,   1
  2069,'HOWE 0      ', 161.0000,1,     0.000,     0.000,   2,  11,1.02985, -69.3916,   1
  2070,'ARCHER 2 0  ', 161.0000,1,     0.000,     0.000,   2,  11,1.00807, -46.6813,   1
  2071,'ARCHER 2 1  ',  18.0000,2,     0.000,     0.000,   2,  11,1.00000, -43.0195,   1
  2072,'COLLINSVIL~1', 161.0000,1,     0.000,     0.000,   2,  11,1.02339, -67.5825,   1
  2073,'JAYTON 0    ', 161.0000,1,     0.000,     0.000,   2,  10,1.02127, -31.1146,   1
  2074,'JAYTON 1    ', 115.0000,1,     0.000,     0.000,   2,  10,1.01055, -29.0194,   1
  2075,'JAYTON 2    ', 115.0000,1,     0.000,     0.000,   2,  10,1.01055, -29.0194,   1
  2076,'JAYTON 3    ',  24.0000,2,     0.000,     0.000,   2,  10,1.02650, -30.2180,   1
  2077,'MUENSTER 1 0', 161.0000,1,     0.000,     0.000,   2,  11,1.02708, -62.6339,   1
  2078,'MUENSTER 1 1',  13.8000,2,     0.000,     0.000,   2,  11,1.02000, -59.3266,   1
  2079,'PADUCAH 0   ', 161.0000,1,     0.000,     0.000,   2,  10,1.03091, -41.8008,   1
  2080,'NOCONA 0    ', 161.0000,1,     0.000,     0.000,   2,  11,1.00844, -59.9628,   1
  2081,'DODD CITY 0 ', 161.0000,1,     0.000,     0.000,   2,  11,1.00712, -65.6765,   1
  2082,'WICHITA FA~5', 161.0000,1,     0.000,     0.000,   2,  11,1.01414, -50.3584,   1
  2083,'WICHITA FA~6',  20.0000,2,     0.000,     0.000,   2,  11,1.02000, -48.7817,   1
  2084,'WICHITA FA~7',  20.0000,1,     0.000,     0.000,   2,  11,1.01414, -50.3584,   1
  2085,'WICHITA FA~8',  20.0000,1,     0.000,     0.000,   2,  11,1.01414, -50.3584,   1
  2086,'MONTAGUE 0  ', 161.0000,1,     0.000,     0.000,   2,  11,1.00491, -61.3037,   1
  2087,'SPUR 0      ', 161.0000,1,     0.000,     0.000,   2,  10,1.02210, -34.0717,   1
  2088,'ARCHER 1 0  ', 161.0000,1,     0.000,     0.000,   2,  11,1.00716, -46.8657,   1
  2089,'ARCHER 1 1  ',  24.0000,2,     0.000,     0.000,   2,  11,1.00000, -43.2797,   1
  2090,'ANNONA 0    ', 161.0000,1,     0.000,     0.000,   2,  11,1.00752, -62.1033,   1
  2091,'SEYMOUR 0   ', 161.0000,1,     0.000,     0.000,   2,  10,1.02483, -40.3894,   1
  2092,'DENISON 1 0 ', 161.0000,1,     0.000,     0.000,   2,  11,1.01244, -67.0861,   1
  2093,'PANHANDLE~10', 161.0000,1,     0.000,     0.000,   2,  10,1.03065, -38.9572,   1
  2094,'PANHANDLE~11',  13.8000,1,     0.000,     0.000,   2,  10,1.03065, -38.9572,   1
  2095,'PANHANDLE~12',  13.8000,1,     0.000,     0.000,   2,  10,1.03065, -38.9572,   1
  2096,'RALLS 1 0   ', 500.0000,1,     0.000,   -86.936,   2,  10,1.02977, -40.0898,   1
  2097,'RALLS 1 1   ', 230.0000,1,     0.000,     0.000,   2,  10,1.02661, -39.0077,   1
  2098,'RALLS 1 2   ', 161.0000,1,     0.000,     0.000,   2,  10,1.02929, -40.1062,   1
  2099,'RALLS 1 3   ',  18.0000,2,     0.000,     0.000,   2,  10,1.02930, -39.9486,   1
  2100,'RALLS 1 4   ',  18.0000,2,     0.000,     0.000,   2,  10,1.02057, -37.4826,   1
  2101,'SHERMAN 1 0 ', 500.0000,1,     0.000,     0.000,   2,  11,1.01602, -63.1594,   1
  2102,'SHERMAN 1 1 ', 161.0000,1,     0.000,     0.000,   2,  11,1.01693, -64.5594,   1
  2103,'SHERMAN 1 2 ',  20.0000,1,     0.000,     0.000,   2,  11,1.01602, -63.1594,   1
  2104,'SHERMAN 1 3 ',  20.0000,1,     0.000,     0.000,   2,  11,1.01602, -63.1594,   1
  2105,'SHERMAN 1 4 ',  20.0000,1,     0.000,     0.000,   2,  11,1.01602, -63.1594,   1
  2106,'WHITEWRIGH~1', 161.0000,1,     0.000,     0.000,   2,  11,0.99550, -66.7553,   1
  2107,'SHERMAN 2 0 ', 161.0000,1,     0.000,     0.000,   2,  11,1.01170, -65.3648,   1
  2108,'ROCHESTER 0 ', 161.0000,1,     0.000,     0.000,   2,  10,1.01277, -47.1914,   1
  2109,'BURKBURNET~1', 161.0000,1,     0.000,     0.000,   2,  11,1.01841, -51.6310,   1
  2110,'MUENSTER 2 0', 161.0000,1,     0.000,     0.000,   2,  11,1.03000, -63.5710,   1
  2111,'ARCHER CIT~1', 161.0000,1,     0.000,     0.000,   2,  11,1.00787, -52.0232,   1
  2112,'PETROLIA 0  ', 161.0000,1,     0.000,     0.000,   2,  11,1.00683, -53.8916,   1
  2113,'PARIS 1 0   ', 500.0000,1,     0.000,     0.000,   2,  11,1.01794, -57.5397,   1
  2114,'PARIS 1 1   ', 161.0000,1,     0.000,     0.000,   2,  11,1.01570, -58.7696,   1
  2115,'PARIS 1 2   ',  13.8000,2,     0.000,     0.000,   2,  11,1.00910, -53.5681,   1
  2116,'PARIS 1 3   ',  13.8000,2,     0.000,     0.000,   2,  11,1.01373, -55.4819,   1
  2117,'PARIS 1 4   ',  13.8000,2,     0.000,     0.000,   2,  11,1.00638, -52.9324,   1
  2118,'PARIS 1 5   ',  13.8000,2,     0.000,     0.000,   2,  11,1.00502, -52.4275,   1
  2119,'PARIS 1 6   ',  13.8000,2,     0.000,     0.000,   2,  11,1.01265, -55.0319,   1
  2120,'PARIS 1 7   ',  13.8000,2,     0.000,     0.000,   2,  11,1.01000, -52.6539,   1
  2121,'BAGWELL 0   ', 161.0000,1,     0.000,     0.000,   2,  11,1.01087, -61.0732,   1
  2122,'TELEPHONE 0 ', 161.0000,1,     0.000,     0.000,   2,  11,1.00181, -62.1577,   1
  2123,'PANHANDLE ~1', 161.0000,2,     0.000,     0.000,   2,  10,1.03187, -35.1059,   1
  2124,'VAN ALSTYN~1', 161.0000,1,     0.000,     0.000,   2,  11,0.99426, -67.7214,   1
  2125,'TIOGA 0     ', 161.0000,1,     0.000,     0.000,   2,  11,1.00077, -67.3602,   1
  2126,'VALLEY VIE~1', 161.0000,1,     0.000,     0.000,   2,  11,1.01656, -67.4288,   1
  2127,'MIAMI 0     ', 500.0000,2,     0.000,     0.000,   2,  10,1.04206, -41.7296,   1
  2128,'MIAMI 1     ', 161.0000,1,     0.000,     0.000,   2,  10,1.03280, -40.3132,   1
  2129,'TRENTON 0   ', 161.0000,1,     0.000,     0.000,   2,  11,0.99848, -66.6584,   1
  2130,'HASKELL 0   ', 161.0000,1,     0.000,     0.000,   2,  10,1.01423, -45.9156,   1
  2131,'HASKELL 1   ', 115.0000,1,     0.000,     0.000,   2,  10,1.00878, -43.5405,   1
  2132,'HASKELL 2   ', 115.0000,1,     0.000,     0.000,   2,  10,1.02521, -45.2335,   1
  2133,'SAINT JO 0  ', 161.0000,1,     0.000,     0.000,   2,  11,1.02317, -62.1564,   1
  3001,'KERRVILLE 0 ', 230.0000,1,     0.000,     0.000,   3,  28,1.01382, -47.0274,   1
  3002,'KERRVILLE 1 ', 115.0000,1,     0.000,     0.000,   3,  28,1.00202, -49.5174,   1
  3003,'SWEETWATER~4', 115.0000,1,     0.000,     0.000,   3,  27,1.01899, -22.4080,   1
  3004,'SWEETWATER~5',  18.0000,2,     0.000,     0.000,   3,  27,1.01412, -20.8222,   1
  3005,'LEAKEY 0    ', 115.0000,1,     0.000,     0.000,   3,  28,1.01995, -49.9686,   1
  3006,'HAMLIN 0    ', 115.0000,1,     0.000,     0.000,   3,  27,1.00836, -31.1766,   1
  3007,'MERKEL 3 0  ', 115.0000,1,     0.000,     0.000,   3,  27,1.01786, -28.7463,   1
  3008,'COLEMAN 0   ', 115.0000,1,     0.000,     0.000,   3,  27,1.00659, -37.6768,   1
  3009,'SONORA 0    ', 115.0000,1,     0.000,     0.000,   3,  28,1.02286, -34.1843,   1
  3010,'CAMP WOOD 0 ', 115.0000,1,     0.000,     0.000,   3,  28,1.00291, -49.0184,   1
  3011,'LLANO 0     ', 115.0000,1,     0.000,     0.000,   3,  28,1.01609, -52.2388,   1
  3012,'WILLOW CIT~1', 115.0000,1,     0.000,     0.000,   3,  28,1.01772, -51.8610,   1
  3013,'ABILENE 4 0 ', 115.0000,1,     0.000,     0.000,   3,  27,1.02105, -32.3205,   1
  3014,'KINGSLAND 0 ', 115.0000,1,     0.000,     0.000,   3,  28,1.01659, -44.1119,   1
  3015,'ROSCOE 6 0  ', 115.0000,1,     0.000,     0.000,   3,  27,1.01611, -21.5886,   1
  3016,'BLACKWELL 0 ', 115.0000,1,     0.000,     0.000,   3,  27,1.01345, -25.8777,   1
  3017,'BLACKWELL 1 ',  18.0000,2,     0.000,     0.000,   3,  27,1.01000, -20.6898,   1
  3018,'CHRISTOVAL 0', 230.0000,1,     0.000,     0.000,   3,  27,1.03255, -33.6205,   1
  3019,'CHRISTOVAL 1', 115.0000,1,     0.000,     0.000,   3,  27,1.03000, -34.9596,   1
  3020,'CHRISTOVAL 2',  13.8000,2,     0.000,     0.000,   3,  27,1.03000, -29.5069,   1
  3021,'LUEDERS 0   ', 115.0000,1,     0.000,     0.000,   3,  27,1.01146, -39.8423,   1
  3022,'COLORADO C~1', 115.0000,1,     0.000,     0.000,   3,  27,0.99986, -23.2664,   1
  3023,'STAMFORD 0  ', 115.0000,1,     0.000,     0.000,   3,  27,1.02946, -31.5897,   1
  3024,'ELDORADO 0  ', 115.0000,1,     0.000,     0.000,   3,  28,1.02629, -35.0071,   1
  3025,'SAN SABA 0  ', 115.0000,1,     0.000,     0.000,   3,  28,1.00448, -39.8994,   1
  3026,'ABILENE 2 0 ', 230.0000,1,     0.000,     0.000,   3,  27,1.03310, -41.8373,   1
  3027,'ABILENE 2 1 ', 115.0000,1,     0.000,     0.000,   3,  27,1.01981, -41.9707,   1
  3028,'ABILENE 2 2 ',  18.0000,2,     0.000,     0.000,   3,  27,1.04000, -39.2603,   1
  3029,'LOMETA 0    ', 115.0000,1,     0.000,     0.000,   3,  28,1.03200, -50.1678,   1
  3030,'SAN ANGELO~1', 115.0000,1,     0.000,     0.000,   3,  27,1.02222, -42.9723,   1
  3031,'TUSCOLA 0   ', 115.0000,1,     0.000,     0.000,   3,  27,1.00491, -29.6402,   1
  3032,'ABILENE 7 0 ', 115.0000,1,     0.000,     0.000,   3,  27,1.00380, -31.0042,   1
  3033,'SNYDER 1 0  ', 115.0000,1,     0.000,     0.000,   3,  27,1.00896, -20.5190,   1
  3034,'SNYDER 1 1  ',  22.0000,2,     0.000,     0.000,   3,  27,1.03000, -11.2531,   1
  3035,'CHEROKEE 0  ', 115.0000,1,     0.000,     0.000,   3,  28,1.00676, -40.7045,   1
  3036,'RICHLAND S~1', 115.0000,1,     0.000,     0.000,   3,  28,1.00677, -39.7145,   1
  3037,'ROSCOE 2 0  ', 230.0000,1,     0.000,     0.000,   3,  27,1.03130, -30.8653,   1
  3038,'ROSCOE 2 1  ', 115.0000,1,     0.000,     0.000,   3,  27,1.00859, -25.2743,   1
  3039,'ROSCOE 2 2  ',  13.8000,2,     0.000,     0.000,   3,  27,1.04000, -28.2944,   1
  3040,'BALLINGER 0 ', 115.0000,1,     0.000,     0.000,   3,  27,1.00215, -37.3345,   1
  3041,'SILVER 0    ', 230.0000,1,     0.000,     0.000,   3,  27,1.02839, -33.3484,   1
  3042,'SILVER 1    ', 115.0000,1,     0.000,     0.000,   3,  27,1.00932, -23.1617,   1
  3043,'SILVER 2    ',  13.8000,1,     0.000,     0.000,   3,  27,1.02839, -33.3484,   1
  3044,'SILVER 3    ',  13.8000,1,     0.000,     0.000,   3,  27,1.02839, -33.3484,   1
  3045,'SILVER 4    ',  13.8000,1,     0.000,     0.000,   3,  27,1.02839, -33.3484,   1
  3046,'ROSCOE 5 0  ', 230.0000,1,     0.000,     0.000,   3,  27,1.03000, -38.6015,   1
  3047,'ROSCOE 5 1  ', 115.0000,1,     0.000,     0.000,   3,  27,1.03000, -24.8702,   1
  3048,'ROSCOE 5 2  ', 500.0000,2,     0.000,     0.000,   3,  27,1.03969, -44.8081,   1
  3049,'ANSON 0     ', 115.0000,1,     0.000,     0.000,   3,  27,1.01072, -34.3762,   1
  3050,'DEL RIO 0   ', 230.0000,1,     0.000,     0.000,   3,  28,1.03000, -34.8168,   1
  3051,'DEL RIO 1   ', 115.0000,1,     0.000,     0.000,   3,  28,1.01310, -36.8087,   1
  3052,'HUNT 0      ', 115.0000,1,     0.000,     0.000,   3,  28,1.00664, -50.2008,   1
  3053,'WINGATE 0   ', 230.0000,1,     0.000,     0.000,   3,  27,1.03166, -31.5766,   1
  3054,'WINGATE 1   ', 115.0000,1,     0.000,     0.000,   3,  27,1.01128, -30.4348,   1
  3055,'WINGATE 2   ',  13.8000,2,     0.000,     0.000,   3,  27,1.04000, -28.6949,   1
  3056,'WINGATE 3   ',  13.8000,2,     0.000,     0.000,   3,  27,1.04000, -26.1198,   1
  3057,'WINGATE 4   ',  13.8000,2,     0.000,     0.000,   3,  27,1.04000, -26.2832,   1
  3058,'STERLING C~1', 230.0000,1,     0.000,     0.000,   3,  27,1.03461, -28.2220,   1
  3059,'STERLING C~2', 115.0000,1,     0.000,     0.000,   3,  27,1.01439, -21.6707,   1
  3060,'STERLING C~3',  18.0000,2,     0.000,     0.000,   3,  27,1.04000, -20.6713,   1
  3061,'STERLING C~4',  18.0000,2,     0.000,     0.000,   3,  27,1.04000, -22.8373,   1
  3062,'STERLING C~5',  18.0000,2,     0.000,     0.000,   3,  27,1.04000, -25.5084,   1
  3063,'STERLING C~6',  18.0000,2,     0.000,     0.000,   3,  27,1.04000, -24.3583,   1
  3064,'ROSCOE 4 0  ', 115.0000,1,     0.000,     0.000,   3,  27,1.02249, -22.7654,   1
  3065,'ROSCOE 4 1  ',  18.0000,2,     0.000,     0.000,   3,  27,1.00126, -16.6798,   1
  3066,'BRADY 0     ', 115.0000,1,     0.000,     0.000,   3,  28,1.01067, -41.4405,   1
  3067,'TRENT 1 0   ', 115.0000,1,     0.000,     0.000,   3,  27,1.02918, -23.8686,   1
  3068,'TRENT 1 1   ',  20.0000,2,     0.000,     0.000,   3,  27,1.04000, -20.9770,   1
  3069,'OVALO 0     ', 115.0000,1,     0.000,     0.000,   3,  27,1.00465, -32.4996,   1
  3070,'NOLAN 0     ', 115.0000,1,     0.000,     0.000,   3,  27,1.02070, -24.8964,   1
  3071,'NOLAN 1     ',  24.0000,2,     0.000,     0.000,   3,  27,1.00628, -20.3288,   1
  3072,'MILES 0     ', 115.0000,1,     0.000,     0.000,   3,  27,1.01631, -41.1987,   1
  3073,'BRACKETTVI~3', 115.0000,1,     0.000,     0.000,   3,  28,1.00414, -46.3663,   1
  3074,'BRACKETTVI~4',  13.8000,2,     0.000,     0.000,   3,  28,1.00000, -43.8472,   1
  3075,'MASON 0     ', 115.0000,1,     0.000,     0.000,   3,  28,1.00917, -41.5364,   1
  3076,'BRACKETTVI~5', 115.0000,1,     0.000,     0.000,   3,  28,1.00150, -47.7456,   1
  3077,'ABILENE 6 0 ', 115.0000,1,     0.000,     0.000,   3,  27,1.00508, -31.7217,   1
  3078,'HERMLEIGH 0 ', 230.0000,1,     0.000,     0.000,   3,  27,1.02828, -31.3107,   1
  3079,'HERMLEIGH 1 ', 161.0000,1,     0.000,     0.000,   3,  27,1.02175, -29.8012,   1
  3080,'HERMLEIGH 2 ', 115.0000,1,     0.000,     0.000,   3,  27,1.00953, -26.4995,   1
  3081,'HERMLEIGH 3 ',  20.0000,2,     0.000,     0.000,   3,  27,1.04000, -25.2558,   1
  3082,'MERKEL 1 0  ', 230.0000,1,     0.000,     0.000,   3,  27,1.02586, -32.2791,   1
  3083,'MERKEL 1 1  ', 115.0000,1,     0.000,     0.000,   3,  27,1.01666, -28.2901,   1
  3084,'MERKEL 1 2  ',  13.8000,2,     0.000,     0.000,   3,  27,1.00000, -22.4813,   1
  3085,'LORAINE 1 0 ', 115.0000,1,     0.000,     0.000,   3,  27,1.00773, -23.4589,   1
  3086,'LORAINE 1 1 ',  13.2000,2,     0.000,     0.000,   3,  27,1.00000, -16.5324,   1
  3087,'LORAINE 1 2 ',  13.2000,1,     0.000,     0.000,   3,  27,1.00773, -23.4589,   1
  3088,'ABILENE 1 0 ', 230.0000,1,     0.000,     0.000,   3,  27,1.03000, -37.9504,   1
  3089,'ABILENE 1 1 ', 161.0000,1,     0.000,     0.000,   3,  27,1.02797, -40.1072,   1
  3090,'ABILENE 1 2 ', 161.0000,1,     0.000,     0.000,   3,  27,1.02447, -40.7734,   1
  3091,'ABILENE 1 3 ', 115.0000,1,     0.000,     0.000,   3,  27,1.02000, -41.6799,   1
  3092,'ABILENE 1 4 ',  13.8000,2,     0.000,     0.000,   3,  27,1.04000, -31.1620,   1
  3093,'ROCKSPRING~1', 115.0000,1,     0.000,     0.000,   3,  28,1.00447, -49.7286,   1
  3094,'MERKEL 2 0  ', 115.0000,1,     0.000,     0.000,   3,  27,1.01764, -27.2523,   1
  3095,'MERKEL 2 1  ',  18.0000,2,     0.000,     0.000,   3,  27,1.04000, -19.3379,   1
  3096,'FLUVANNA 2 0', 230.0000,1,     0.000,     0.000,   3,  27,1.02242, -29.8564,   1
  3097,'FLUVANNA 2 1', 115.0000,1,     0.000,     0.000,   3,  27,1.01796, -27.7773,   1
  3098,'FLUVANNA 2 2',  13.8000,2,     0.000,     0.000,   3,  27,1.04000, -21.1949,   1
  3099,'DYESS AFB 0 ', 115.0000,1,     0.000,     0.000,   3,  27,1.00235, -32.6812,   1
  3100,'HAWLEY 0    ', 115.0000,1,     0.000,     0.000,   3,  27,1.00185, -39.0673,   1
  3101,'BUCHANAN D~4', 115.0000,1,     0.000,     0.000,   3,  28,1.00392, -38.4281,   1
  3102,'ABILENE 3 0 ', 115.0000,1,     0.000,     0.000,   3,  27,1.01204, -41.8818,   1
  3103,'SWEETWATER~6', 115.0000,1,     0.000,     0.000,   3,  27,1.01151, -24.7170,   1
  3104,'BUCHANAN D~1', 115.0000,1,     0.000,     0.000,   3,  28,1.00445, -35.0691,   1
  3105,'BUCHANAN D~2',  13.2000,2,     0.000,     0.000,   3,  28,1.00218, -29.4000,   1
  3106,'BUCHANAN D~3',  13.2000,2,     0.000,     0.000,   3,  28,1.00000, -14.2542,   1
  3107,'INGRAM 0    ', 115.0000,1,     0.000,     0.000,   3,  28,1.00162, -50.1543,   1
  3108,'KEMPNER 0   ', 115.0000,1,     0.000,     0.000,   3,  28,1.01087, -51.7216,   1
  3109,'FLUVANNA 1 0', 115.0000,1,     0.000,     0.000,   3,  27,1.01834, -26.2196,   1
  3110,'FLUVANNA 1 1',  13.8000,2,     0.000,     0.000,   3,  27,1.04000, -18.7146,   1