0,   100.00, 30, 0, 1,  60.00     / PSS(R)E 30 RAW created by rawd30  MON, MAR 31 2025  19:40
TEXAS2K_SERIES24_CASE3_2024SUMMERPEAK
THIS IS A SYNTHETIC POWER SYSTEM MODEL THAT DOES NOT REPRESE
  1001,'ODESSA 2 0  ', 115.0000,1,     0.000,     0.000,   1,   9,0.96824,   5.7897,   1
  1002,'PRESIDIO 2 0', 115.0000,1,     0.000,     0.000,   1,   9,1.03310,  32.8125,   1
  1003,'O DONNELL ~1', 115.0000,1,     0.000,     0.000,   1,   9,0.99513,  12.9281,   1
  1004,'O DONNELL ~2', 230.0000,2,     0.000,     0.000,   1,   9,1.01000,   4.3102,   1
  1005,'BIG SPRING~8', 115.0000,1,     0.000,     0.000,   1,   9,0.99848,  17.4794,   1
  1006,'BIG SPRING~9',  13.8000,2,     0.000,     0.000,   1,   9,1.00000,  18.5630,   1
  1007,'VAN HORN 0  ', 115.0000,2,     0.000,     0.000,   1,   9,1.03766,  38.4517,   1
  1008,'IRAAN 2 0   ', 115.0000,1,     0.000,     0.000,   1,   9,1.00407,  21.7595,   1
  1009,'IRAAN 2 1   ',  13.8000,2,     0.000,     0.000,   1,   9,1.00000,  25.1193,   1
  1010,'PRESIDIO 1 0', 115.0000,1,     0.000,     0.000,   1,   9,1.03712,  32.5679,   1
  1011,'PRESIDIO 1 1',  22.0000,2,     0.000,     0.000,   1,   9,1.03734,  34.2968,   1
  1012,'SANDERSON 0 ', 115.0000,1,     0.000,     0.000,   1,   9,1.00835,   7.3248,   1
  1013,'MONAHANS 2 0', 115.0000,1,     0.000,     0.000,   1,   9,0.99636,  22.6939,   1
  1014,'GRANDFALLS 0', 115.0000,1,     0.000,     0.000,   1,   9,0.99571,  23.1059,   1
  1015,'MARFA 0     ', 115.0000,1,     0.000,     0.000,   1,   9,1.03749,  34.2224,   1
  1016,'GARDEN CIT~1', 115.0000,2,     0.000,     0.000,   1,   9,1.00000,  23.5753,   1
  1017,'ODESSA 4 0  ', 115.0000,1,     0.000,     0.000,   1,   9,0.97921,  12.1995,   1
  1018,'NOTREES 0   ', 115.0000,1,     0.000,     0.000,   1,   9,0.99555,  13.7914,   1
  1019,'MIDLAND 4 0 ', 115.0000,1,     0.000,     0.000,   1,   9,0.98354,   8.2692,   1
  1020,'BIG SPRING~1', 115.0000,1,     0.000,     0.000,   1,   9,1.00354,  12.0089,   1
  1021,'BIG SPRING~2',  13.8000,2,     0.000,     0.000,   1,   9,1.00000,  15.3579,   1
  1022,'O DONNELL ~3', 115.0000,2,     0.000,     0.000,   1,   9,1.00052,  14.1151,   1
  1023,'O DONNELL ~4',  13.8000,2,     0.000,     0.000,   1,   9,1.01000,  22.5852,   1
  1024,'ODESSA 6 0  ', 115.0000,1,     0.000,     0.000,   1,   9,1.00324,  15.1484,   1
  1025,'BIG SPRIN~14', 115.0000,1,     0.000,     0.000,   1,   9,1.00229,  13.6503,   1
  1026,'BIG SPRIN~15',  13.8000,2,     0.000,     0.000,   1,   9,1.00000,  23.2945,   1
  1027,'MIDLAND 2 0 ', 115.0000,2,     0.000,     0.000,   1,   9,1.00000,   8.5069,   1
  1028,'COAHOMA 0   ', 115.0000,2,     0.000,     0.000,   1,   9,1.00000,   9.6281,   1
  1029,'MIDLAND 3 0 ', 115.0000,2,     0.000,     0.000,   1,   9,1.00000,  10.5109,   1
  1030,'ALPINE 0    ', 115.0000,2,     0.000,     0.000,   1,   9,1.01209,  28.1580,   1
  1031,'FORT DAVIS 0', 115.0000,1,     0.000,     0.000,   1,   9,1.00993,  30.3317,   1
  1032,'MCCAMEY 1 0 ', 115.0000,2,     0.000,     0.000,   1,   9,0.98846,  19.6845,   1
  1033,'MCCAMEY 1 1 ', 230.0000,2,     0.000,     0.000,   1,   9,1.00000,  16.1168,   1
  1034,'BIG SPRING~6', 115.0000,1,     0.000,     0.000,   1,   9,1.00051,  20.1305,   1
  1035,'BIG SPRING~7',  13.8000,2,     0.000,     0.000,   1,   9,1.00000,  23.4218,   1
  1036,'CRANE 0     ', 115.0000,2,     0.000,     0.000,   1,   9,0.99670,  23.5788,   1
  1037,'ODESSA 5 0  ', 115.0000,2,     0.000,     0.000,   1,   9,0.97351,  10.0350,   1
  1038,'FORT STOCK~1', 115.0000,1,     0.000,     0.000,   1,   9,1.00118,  25.1037,   1
  1039,'FORT STOCK~2',  22.0000,2,     0.000,     0.000,   1,   9,1.00000,  30.5495,   1
  1040,'ANDREWS 0   ', 115.0000,2,     0.000,     0.000,   1,   9,1.00000,  17.1428,   1
  1041,'FORSAN 0    ', 115.0000,1,     0.000,     0.000,   1,   9,1.00330,  19.2869,   1
  1042,'FORSAN 1    ',  13.8000,1,     0.000,     0.000,   1,   9,1.00330,  19.2869,   1
  1043,'FORSAN 2    ',  13.8000,2,     0.000,     0.000,   1,   9,1.00000,  22.5273,   1
  1044,'BIG LAKE 0  ', 115.0000,2,     0.000,     0.000,   1,   9,1.00000,   5.7560,   1
  1045,'MIDLAND 5 0 ', 115.0000,1,     0.000,     0.000,   1,   9,0.96732,   6.4911,   1
  1046,'OZONA 0     ', 115.0000,2,     0.000,     0.000,   1,   9,1.00000,  17.6956,   1
  1047,'MONAHANS 1 0', 115.0000,1,     0.000,     0.000,   1,   9,0.99417,  18.9981,   1
  1048,'MONAHANS 1 1',  18.0000,1,     0.000,     0.000,   1,   9,0.99417,  18.9981,   1
  1049,'MONAHANS 1 2',  18.0000,1,     0.000,     0.000,   1,   9,0.99417,  18.9981,   1
  1050,'MONAHANS 1 3',  18.0000,2,     0.000,     0.000,   1,   9,1.00000,  21.5501,   1
  1051,'MONAHANS 1 4',  18.0000,2,     0.000,     0.000,   1,   9,1.00000,  22.2926,   1
  1052,'MONAHANS 1 5',  18.0000,2,     0.000,     0.000,   1,   9,1.00000,  21.1140,   1
  1053,'MONAHANS 1 6', 230.0000,1,     0.000,     0.000,   1,   9,0.99698,  14.2884,   1
  1054,'STANTON 0   ', 115.0000,1,     0.000,     0.000,   1,   9,1.00316,  13.0374,   1
  1055,'ODONNELL 0  ', 115.0000,2,     0.000,     0.000,   1,   9,1.00000,  13.9896,   1
  1056,'LENORAH 0   ', 115.0000,1,     0.000,     0.000,   1,   9,1.01714,  12.3461,   1
  1057,'LENORAH 1   ',  18.0000,1,     0.000,     0.000,   1,   9,1.01714,  12.3461,   1
  1058,'IRAAN 3 0   ', 115.0000,1,     0.000,     0.000,   1,   9,1.01189,  19.8126,   1
  1059,'IRAAN 3 1   ',  22.0000,1,     0.000,     0.000,   1,   9,1.01189,  19.8126,   1
  1060,'IRAAN 3 2   ',  22.0000,1,     0.000,     0.000,   1,   9,1.01189,  19.8126,   1
  1061,'BIG SPRIN~10', 115.0000,2,     0.000,     0.000,   1,   9,1.00000,  16.2996,   1
  1062,'BIG SPRIN~11',  13.8000,2,     0.000,     0.000,   1,   9,1.01000,  18.6414,   1
  1063,'BIG SPRIN~12',  13.8000,2,     0.000,     0.000,   1,   9,1.01000,  19.3747,   1
  1064,'ODESSA 3 0  ', 115.0000,1,     0.000,     0.000,   1,   9,0.96042,   4.8412,   1
  1065,'BIG SPRING~4', 115.0000,1,     0.000,     0.000,   1,   9,1.00498,  19.4313,   1
  1066,'BIG SPRING~5',  13.8000,2,     0.000,     0.000,   1,   9,1.00000,  26.9611,   1
  1067,'BIG SPRIN~13', 115.0000,1,     0.000,     0.000,   1,   9,1.00098,  18.7335,   1
  1068,'MIDLAND 1 0 ', 115.0000,1,     0.000,     0.000,   1,   9,0.97442,  20.4115,   1
  1069,'IRAAN 1 0   ', 115.0000,1,     0.000,     0.000,   1,   9,1.01105,  22.4856,   1
  1070,'IRAAN 1 1   ',  13.8000,2,     0.000,     0.000,   1,   9,1.04000,  27.0130,   1
  1071,'ODESSA 1 0  ', 115.0000,1,     0.000,     0.000,   1,   9,0.97603,   6.7442,   1
  1072,'ODESSA 1 1  ',  18.0000,2,     0.000,     0.000,   1,   9,1.01000,  11.4070,   1
  1073,'ODESSA 1 2  ',  18.0000,2,     0.000,     0.000,   1,   9,1.01000,  14.6489,   1
  1074,'ODESSA 1 3  ',  18.0000,2,     0.000,     0.000,   1,   9,1.01000,  13.6175,   1
  1075,'ODESSA 1 4  ',  18.0000,2,     0.000,     0.000,   1,   9,1.01000,  12.2410,   1
  1076,'ODESSA 1 5  ',  18.0000,1,     0.000,     0.000,   1,   9,0.97603,   6.7442,   1
  1077,'ODESSA 1 6  ',  18.0000,1,     0.000,     0.000,   1,   9,0.97603,   6.7442,   1
  1078,'ODESSA 1 7  ',  18.0000,2,     0.000,     0.000,   1,   9,1.01000,  11.9905,   1
  1079,'ODESSA 1 8  ', 500.0000,2,     0.000,     0.000,   1,   9,1.01000, -14.9422,   1
  1080,'ODESSA 1 9  ',  18.0000,2,     0.000,     0.000,   1,   9,1.01000,  12.2463,   1
  1081,'ODESSA 1 10 ', 230.0000,1,     0.000,     0.000,   1,   9,0.99776,  11.0748,   1
  1082,'FORT STOCK~3', 115.0000,2,     0.000,     0.000,   1,   9,1.00000,  25.4671,   1
  1083,'FORT STOCK~4', 115.0000,2,     0.000,     0.000,   1,   9,1.00000,  28.3499,   1
  1084,'BIG SPRING~3', 115.0000,2,     0.000,     0.000,   1,   9,1.04000,  11.2168,   1
  1085,'KERMIT 0    ', 115.0000,2,     0.000,     0.000,   1,   9,1.00000,  22.2358,   1
  1086,'PECOS 0     ', 115.0000,2,     0.000,     0.000,   1,   9,1.01479,  21.7765,   1
  1087,'SHEFFIELD 0 ', 115.0000,1,     0.000,     0.000,   1,   9,1.02203,  14.7161,   1
  1088,'MCCAMEY 2 0 ', 115.0000,2,     0.000,     0.000,   1,   9,1.00000,  24.4966,   1
  1089,'LAMESA 0    ', 115.0000,2,     0.000,     0.000,   1,   9,1.00000,  17.2453,   1
  1090,'GOLDSMITH 0 ', 115.0000,2,     0.000,     0.000,   1,   9,1.02000,  17.3347,   1
  1091,'RALLS 2 0   ', 161.0000,1,     0.000,     0.000,   1,   9,0.97825,  11.0160,   1
  2001,'PARIS 3 0   ', 161.0000,1,     0.000,     0.000,   2,  11,0.99939, -45.7566,   1
  2002,'SAVOY 0     ', 500.0000,1,     0.000,     0.000,   2,  11,1.01333, -46.6724,   1
  2003,'SAVOY 1     ', 161.0000,1,     0.000,     0.000,   2,  11,1.01202, -48.9739,   1
  2004,'SAVOY 2     ',  13.8000,1,     0.000,     0.000,   2,  11,1.01333, -46.6724,   1
  2005,'SAVOY 3     ',  13.8000,1,     0.000,     0.000,   2,  11,1.01333, -46.6724,   1
  2006,'SAVOY 4     ',  13.8000,1,     0.000,     0.000,   2,  11,1.01333, -46.6724,   1
  2007,'HONEY GROV~1', 161.0000,1,     0.000,     0.000,   2,  11,1.00154, -45.0690,   1
  2008,'MEMPHIS 0   ', 161.0000,2,     0.000,     0.000,   2,  10,1.00128,  19.9356,   1
  2009,'IOWA PARK 0 ', 161.0000,1,     0.000,     0.000,   2,  11,0.99298, -13.0940,   1
  2010,'VERNON 2 0  ', 161.0000,2,     0.000,     0.000,   2,  10,1.00000,   9.6414,   1
  2011,'PANHANDLE ~2', 500.0000,2,     0.000,     0.000,   2,  10,1.00000,   5.3245,   1
  2012,'PANHANDLE ~3', 161.0000,2,     0.000,     0.000,   2,  10,0.99018,  12.2709,   1
  2013,'PANHANDLE ~4',  18.0000,2,     0.000,     0.000,   2,  10,1.00000,   7.9655,   1
  2014,'CHILDRESS 0 ', 161.0000,1,     0.000,     0.000,   2,  10,0.99568,  19.7249,   1
  2015,'FORESTBURG 0', 161.0000,1,     0.000,     0.000,   2,  11,0.99268, -40.5524,   1
  2016,'SHERMAN 3 0 ', 161.0000,2,     0.000,     0.000,   2,  11,1.00987, -56.3795,   1
  2017,'PANHANDLE ~7', 500.0000,1,     0.000,     0.000,   2,  10,1.03648,   0.2423,   1
  2018,'PANHANDLE ~8', 161.0000,1,     0.000,     0.000,   2,  10,1.00826,   4.1526,   1
  2019,'PANHANDLE ~9',  20.0000,1,     0.000,     0.000,   2,  10,1.03648,   0.2423,   1
  2020,'WICHITA F~12', 161.0000,1,     0.000,     0.000,   2,  11,0.97441, -19.1731,   1
  2021,'PARIS 2 0   ', 500.0000,1,     0.000,     0.000,   2,  11,1.01336, -41.7913,   1
  2022,'PARIS 2 1   ', 161.0000,1,     0.000,     0.000,   2,  11,1.00909, -44.0727,   1
  2023,'PARIS 2 2   ',  13.8000,2,     0.000,     0.000,   2,  11,1.02000, -40.2237,   1
  2024,'PARIS 2 3   ',  13.8000,2,     0.000,     0.000,   2,  11,1.02000, -39.5561,   1
  2025,'WICHITA F~10', 161.0000,1,     0.000,     0.000,   2,  11,0.97189, -19.1853,   1
  2026,'WHEELER 0   ', 161.0000,1,     0.000,     0.000,   2,  10,0.99711,   6.5696,   1
  2027,'DEPORT 0    ', 161.0000,1,     0.000,     0.000,   2,  11,0.99982, -46.2173,   1
  2028,'WICHITA FA~9', 161.0000,1,     0.000,     0.000,   2,  11,0.98160, -20.1064,   1
  2029,'SILVERTON 0 ', 161.0000,2,     0.000,     0.000,   2,  10,1.00000,  21.0371,   1
  2030,'BONHAM 0    ', 161.0000,1,     0.000,     0.000,   2,  11,0.98840, -49.9390,   1
  2031,'MATADOR 0   ', 161.0000,1,     0.000,     0.000,   2,  10,1.00030,  10.9302,   1
  2032,'ARTHUR CIT~1', 161.0000,1,     0.000,     0.000,   2,  11,1.00356, -44.3617,   1
  2033,'LEONARD 0   ', 161.0000,1,     0.000,     0.000,   2,  11,0.99316, -51.4184,   1
  2034,'GORDONVILL~1', 161.0000,1,     0.000,     0.000,   2,  11,1.00645, -55.6805,   1
  2035,'KNOX CITY 0 ', 161.0000,2,     0.000,     0.000,   2,  10,1.00000,  17.0259,   1
  2036,'WICHITA F~13', 161.0000,1,     0.000,     0.000,   2,  11,0.97828, -17.1138,   1
  2037,'LINDSAY 0   ', 161.0000,1,     0.000,     0.000,   2,  11,1.00261, -40.5323,   1
  2038,'ECTOR 0     ', 161.0000,1,     0.000,     0.000,   2,  11,1.01111, -49.0141,   1
  2039,'SUNSET 0    ', 161.0000,1,     0.000,     0.000,   2,  11,0.98185, -38.2296,   1
  2040,'CLARKSVILL~1', 161.0000,1,     0.000,     0.000,   2,  11,1.00566, -44.7930,   1
  2041,'PANHANDLE ~5', 161.0000,2,     0.000,     0.000,   2,  10,1.00000,  16.7147,   1
  2042,'PANHANDLE ~6',  18.0000,2,     0.000,     0.000,   2,  10,1.01000,  19.6665,   1
  2043,'SADLER 0    ', 161.0000,1,     0.000,     0.000,   2,  11,1.00768, -56.0068,   1
  2044,'WHITESBORO 0', 161.0000,1,     0.000,     0.000,   2,  11,0.99948, -45.8648,   1
  2045,'SHEPPARD A~1', 161.0000,1,     0.000,     0.000,   2,  11,0.97536, -19.4406,   1
  2046,'POTTSBORO 0 ', 161.0000,1,     0.000,     0.000,   2,  11,1.00561, -55.2543,   1
  2047,'BELLS 0     ', 161.0000,1,     0.000,     0.000,   2,  11,1.00994, -50.1044,   1
  2048,'CROSBYTON 0 ', 161.0000,2,     0.000,     0.000,   2,  10,1.00000,  13.1022,   1
  2049,'ELECTRA 0   ', 161.0000,2,     0.000,     0.000,   2,  10,1.00000,  -4.4272,   1
  2050,'PATTONVILL~1', 161.0000,1,     0.000,     0.000,   2,  11,0.99247, -49.3001,   1
  2051,'HENRIETTA 0 ', 161.0000,2,     0.000,     0.000,   2,  11,1.00000, -28.5329,   1
  2052,'PANHANDLE~13', 161.0000,1,     0.000,     0.000,   2,  10,0.98906,  15.4644,   1
  2053,'BOWIE 0     ', 161.0000,1,     0.000,     0.000,   2,  11,0.98494, -39.4615,   1
  2054,'WICHITA FA~1', 500.0000,1,     0.000,     0.000,   2,  11,0.97638, -18.9843,   1
  2055,'WICHITA FA~2', 161.0000,1,     0.000,     0.000,   2,  11,0.97464, -18.5422,   1
  2056,'WICHITA FA~3',  18.0000,1,     0.000,     0.000,   2,  11,0.97638, -18.9843,   1
  2057,'WICHITA FA~4',  18.0000,2,     0.000,     0.000,   2,  11,0.99000, -15.7271,   1
  2058,'WHITE DEER 0', 161.0000,1,     0.000,     0.000,   2,  10,0.99990,  15.4702,   1
  2059,'WHITE DEER 1',  13.8000,2,     0.000,     0.000,   2,  10,1.00000,  18.9436,   1
  2060,'ROXTON 0    ', 161.0000,1,     0.000,     0.000,   2,  11,0.99641, -47.7880,   1
  2061,'VERNON 1 0  ', 161.0000,1,     0.000,     0.000,   2,  10,1.00189,   1.1511,   1
  2062,'VERNON 1 1  ',  18.0000,2,     0.000,     0.000,   2,  10,1.02000,   3.4492,   1
  2063,'DENISON 2 0 ', 161.0000,1,     0.000,     0.000,   2,  11,1.00656, -54.4994,   1
  2064,'SUMNER 0    ', 161.0000,1,     0.000,     0.000,   2,  11,1.00194, -45.9295,   1
  2065,'GAINESVILL~1', 161.0000,2,     0.000,     0.000,   2,  11,1.00000, -42.8310,   1
  2066,'ASPERMONT 0 ', 161.0000,1,     0.000,     0.000,   2,  10,0.99375,   9.3210,   1
  2067,'WICHITA F~11', 161.0000,1,     0.000,     0.000,   2,  11,0.97145, -19.6556,   1
  2068,'WINDTHORST 0', 161.0000,1,     0.000,     0.000,   2,  11,0.98695, -19.1935,   1
  2069,'HOWE 0      ', 161.0000,1,     0.000,     0.000,   2,  11,1.02657, -55.3182,   1
  2070,'ARCHER 2 0  ', 161.0000,1,     0.000,     0.000,   2,  11,0.99091, -19.3282,   1
  2071,'ARCHER 2 1  ',  18.0000,2,     0.000,     0.000,   2,  11,1.00000, -15.6253,   1
  2072,'COLLINSVIL~1', 161.0000,1,     0.000,     0.000,   2,  11,1.01821, -52.9215,   1
  2073,'JAYTON 0    ', 161.0000,1,     0.000,     0.000,   2,  10,0.99973,   3.5802,   1
  2074,'JAYTON 1    ', 115.0000,1,     0.000,     0.000,   2,  10,0.99721,   6.0237,   1
  2075,'JAYTON 2    ', 115.0000,1,     0.000,     0.000,   2,  10,0.99721,   6.0237,   1
  2076,'JAYTON 3    ',  24.0000,2,     0.000,     0.000,   2,  10,1.04000,   4.3898,   1
  2077,'MUENSTER 1 0', 161.0000,1,     0.000,     0.000,   2,  11,1.01023, -37.4031,   1
  2078,'MUENSTER 1 1',  13.8000,2,     0.000,     0.000,   2,  11,1.02000, -34.0673,   1
  2079,'PADUCAH 0   ', 161.0000,1,     0.000,     0.000,   2,  10,1.00091,  10.8608,   1
  2080,'NOCONA 0    ', 161.0000,1,     0.000,     0.000,   2,  11,0.99649, -31.4545,   1
  2081,'DODD CITY 0 ', 161.0000,2,     0.000,     0.000,   2,  11,1.00941, -49.0132,   1
  2082,'WICHITA FA~5', 161.0000,1,     0.000,     0.000,   2,  11,0.98215, -15.9804,   1
  2083,'WICHITA FA~6',  20.0000,2,     0.000,     0.000,   2,  11,1.02000, -14.4046,   1
  2084,'WICHITA FA~7',  20.0000,1,     0.000,     0.000,   2,  11,0.98215, -15.9804,   1
  2085,'WICHITA FA~8',  20.0000,1,     0.000,     0.000,   2,  11,0.98215, -15.9804,   1
  2086,'MONTAGUE 0  ', 161.0000,1,     0.000,     0.000,   2,  11,0.98608, -35.6267,   1
  2087,'SPUR 0      ', 161.0000,2,     0.000,     0.000,   2,  10,1.00000,   9.4619,   1
  2088,'ARCHER 1 0  ', 161.0000,1,     0.000,     0.000,   2,  11,0.98916, -19.0969,   1
  2089,'ARCHER 1 1  ',  24.0000,2,     0.000,     0.000,   2,  11,1.00000, -15.4675,   1
  2090,'ANNONA 0    ', 161.0000,1,     0.000,     0.000,   2,  11,1.00032, -46.8450,   1
  2091,'SEYMOUR 0   ', 161.0000,2,     0.000,     0.000,   2,  10,1.00000,  14.7473,   1
  2092,'DENISON 1 0 ', 161.0000,1,     0.000,     0.000,   2,  11,1.00632, -52.4033,   1
  2093,'PANHANDLE~10', 161.0000,2,     0.000,     0.000,   2,  10,1.00000,   8.6143,   1
  2094,'PANHANDLE~11',  13.8000,2,     0.000,     0.000,   2,  10,1.00000,   9.2693,   1
  2095,'PANHANDLE~12',  13.8000,2,     0.000,     0.000,   2,  10,1.00000,   8.9377,   1
  2096,'RALLS 1 0   ', 500.0000,1,     0.000,     0.000,   2,  10,1.01466,  -0.9814,   1
  2097,'RALLS 1 1   ', 230.0000,1,     0.000,     0.000,   2,  10,1.00817,   0.6047,   1
  2098,'RALLS 1 2   ', 161.0000,1,     0.000,     0.000,   2,  10,0.97597,   9.5287,   1
  2099,'RALLS 1 3   ',  18.0000,2,     0.000,     0.000,   2,  10,1.02000,  -0.8397,   1
  2100,'RALLS 1 4   ',  18.0000,2,     0.000,     0.000,   2,  10,1.02000,   1.6515,   1
  2101,'SHERMAN 1 0 ', 500.0000,1,     0.000,     0.000,   2,  11,1.01363, -47.7715,   1
  2102,'SHERMAN 1 1 ', 161.0000,1,     0.000,     0.000,   2,  11,1.01079, -48.9055,   1
  2103,'SHERMAN 1 2 ',  20.0000,1,     0.000,     0.000,   2,  11,1.01363, -47.7715,   1
  2104,'SHERMAN 1 3 ',  20.0000,1,     0.000,     0.000,   2,  11,1.01363, -47.7715,   1
  2105,'SHERMAN 1 4 ',  20.0000,1,     0.000,     0.000,   2,  11,1.01363, -47.7715,   1
  2106,'WHITEWRIGH~1', 161.0000,1,     0.000,     0.000,   2,  11,0.99220, -52.1244,   1
  2107,'SHERMAN 2 0 ', 161.0000,1,     0.000,     0.000,   2,  11,1.00557, -49.8831,   1
  2108,'ROCHESTER 0 ', 161.0000,1,     0.000,     0.000,   2,  10,0.99748,  -5.0175,   1
  2109,'BURKBURNET~1', 161.0000,2,     0.000,     0.000,   2,  11,1.00000, -15.5371,   1
  2110,'MUENSTER 2 0', 161.0000,1,     0.000,     0.000,   2,  11,1.01021, -38.7800,   1
  2111,'ARCHER CIT~1', 161.0000,1,     0.000,     0.000,   2,  11,0.98903, -19.0354,   1
  2112,'PETROLIA 0  ', 161.0000,1,     0.000,     0.000,   2,  11,0.98503, -22.7542,   1
  2113,'PARIS 1 0   ', 500.0000,2,     0.000,     0.000,   2,  11,1.01300, -41.2967,   1
  2114,'PARIS 1 1   ', 161.0000,2,     0.000,     0.000,   2,  11,1.01085, -42.4793,   1
  2115,'PARIS 1 2   ',  13.8000,2,     0.000,     0.000,   2,  11,1.00000, -35.7082,   1
  2116,'PARIS 1 3   ',  13.8000,2,     0.000,     0.000,   2,  11,1.00000, -38.3839,   1
  2117,'PARIS 1 4   ',  13.8000,2,     0.000,     0.000,   2,  11,1.00000, -34.8312,   1
  2118,'PARIS 1 5   ',  13.8000,2,     0.000,     0.000,   2,  11,1.00000, -34.1329,   1
  2119,'PARIS 1 6   ',  13.8000,2,     0.000,     0.000,   2,  11,1.00000, -37.7526,   1
  2120,'PARIS 1 7   ',  13.8000,2,     0.000,     0.000,   2,  11,1.01000, -34.4886,   1
  2121,'BAGWELL 0   ', 161.0000,1,     0.000,     0.000,   2,  11,1.00411, -45.5487,   1
  2122,'TELEPHONE 0 ', 161.0000,1,     0.000,     0.000,   2,  11,0.99527, -46.6570,   1
  2123,'PANHANDLE ~1', 161.0000,2,     0.000,     0.000,   2,  10,1.00000,  16.1196,   1
  2124,'VAN ALSTYN~1', 161.0000,1,     0.000,     0.000,   2,  11,0.99200, -53.4644,   1
  2125,'TIOGA 0     ', 161.0000,1,     0.000,     0.000,   2,  11,0.99705, -52.0009,   1
  2126,'VALLEY VIE~1', 161.0000,1,     0.000,     0.000,   2,  11,1.00104, -45.6246,   1
  2127,'MIAMI 0     ', 500.0000,2,     0.000,     0.000,   2,  10,1.04000,  -0.9440,   1
  2128,'MIAMI 1     ', 161.0000,1,     0.000,     0.000,   2,  10,1.00818,   2.8600,   1
  2129,'TRENTON 0   ', 161.0000,1,     0.000,     0.000,   2,  11,0.99603, -51.8315,   1
  2130,'HASKELL 0   ', 161.0000,2,     0.000,     0.000,   2,  10,1.00000,  -1.7911,   1
  2131,'HASKELL 1   ', 115.0000,2,     0.000,     0.000,   2,  10,1.00000,   2.6247,   1
  2132,'HASKELL 2   ', 115.0000,2,     0.000,     0.000,   2,  10,1.00000,   5.4034,   1
  2133,'SAINT JO 0  ', 161.0000,1,     0.000,     0.000,   2,  11,1.00656, -36.2954,   1
  3001,'KERRVILLE 0 ', 230.0000,1,     0.000,     0.000,   3,  28,1.00140, -46.2376,   1
  3002,'KERRVILLE 1 ', 115.0000,1,     0.000,     0.000,   3,  28,0.98479, -48.1847,   1
  3003,'SWEETWATER~4', 115.0000,1,     0.000,     0.000,   3,  27,1.00046,   2.0098,   1
  3004,'SWEETWATER~5',  18.0000,2,     0.000,     0.000,   3,  27,1.00000,   3.6395,   1
  3005,'LEAKEY 0    ', 115.0000,1,     0.000,     0.000,   3,  28,1.02187, -38.9374,   1
  3006,'HAMLIN 0    ', 115.0000,1,     0.000,     0.000,   3,  27,1.01029,  -0.0996,   1
  3007,'MERKEL 3 0  ', 115.0000,1,     0.000,     0.000,   3,  27,1.02204,  -3.4764,   1
  3008,'COLEMAN 0   ', 115.0000,1,     0.000,     0.000,   3,  27,0.95583,  -6.1844,   1
  3009,'SONORA 0    ', 115.0000,1,     0.000,     0.000,   3,  28,0.98842,   6.5513,   1
  3010,'CAMP WOOD 0 ', 115.0000,1,     0.000,     0.000,   3,  28,0.99114, -36.0894,   1
  3011,'LLANO 0     ', 115.0000,1,     0.000,     0.000,   3,  28,0.98608, -48.9319,   1
  3012,'WILLOW CIT~1', 115.0000,1,     0.000,     0.000,   3,  28,0.99075, -49.2881,   1
  3013,'ABILENE 4 0 ', 115.0000,1,     0.000,     0.000,   3,  27,1.02616,  -6.5551,   1
  3014,'KINGSLAND 0 ', 115.0000,1,     0.000,     0.000,   3,  28,0.99061, -37.7846,   1
  3015,'ROSCOE 6 0  ', 115.0000,1,     0.000,     0.000,   3,  27,0.99962,   2.5512,   1
  3016,'BLACKWELL 0 ', 115.0000,1,     0.000,     0.000,   3,  27,1.00714,  -1.6486,   1
  3017,'BLACKWELL 1 ',  18.0000,2,     0.000,     0.000,   3,  27,1.01000,   0.9537,   1
  3018,'CHRISTOVAL 0', 230.0000,1,     0.000,     0.000,   3,  27,0.99508,  -3.2179,   1
  3019,'CHRISTOVAL 1', 115.0000,1,     0.000,     0.000,   3,  27,0.99533,  -1.4762,   1
  3020,'CHRISTOVAL 2',  13.8000,2,     0.000,     0.000,   3,  27,1.03000,   1.0084,   1
  3021,'LUEDERS 0   ', 115.0000,1,     0.000,     0.000,   3,  27,1.00142,  -1.5516,   1
  3022,'COLORADO C~1', 115.0000,1,     0.000,     0.000,   3,  27,0.98957,   3.8736,   1
  3023,'STAMFORD 0  ', 115.0000,1,     0.000,     0.000,   3,  27,1.01546,   3.5794,   1
  3024,'ELDORADO 0  ', 115.0000,2,     0.000,     0.000,   3,  28,1.00000,   1.0246,   1
  3025,'SAN SABA 0  ', 115.0000,1,     0.000,     0.000,   3,  28,0.95076, -20.8595,   1
  3026,'ABILENE 2 0 ', 230.0000,1,     0.000,     0.000,   3,  27,1.01643, -14.1881,   1
  3027,'ABILENE 2 1 ', 115.0000,1,     0.000,     0.000,   3,  27,1.03002, -13.5205,   1
  3028,'ABILENE 2 2 ',  18.0000,2,     0.000,     0.000,   3,  27,1.04000, -11.5828,   1
  3029,'LOMETA 0    ', 115.0000,1,     0.000,     0.000,   3,  28,0.98891, -34.2657,   1
  3030,'SAN ANGELO~1', 115.0000,1,     0.000,     0.000,   3,  27,1.00842, -10.3424,   1
  3031,'TUSCOLA 0   ', 115.0000,1,     0.000,     0.000,   3,  27,0.99833,  -4.0648,   1
  3032,'ABILENE 7 0 ', 115.0000,1,     0.000,     0.000,   3,  27,1.01552,  -4.9864,   1
  3033,'SNYDER 1 0  ', 115.0000,1,     0.000,     0.000,   3,  27,1.00123,   8.4171,   1
  3034,'SNYDER 1 1  ',  22.0000,2,     0.000,     0.000,   3,  27,1.03000,  13.0410,   1
  3035,'CHEROKEE 0  ', 115.0000,1,     0.000,     0.000,   3,  28,0.96981, -15.9846,   1
  3036,'RICHLAND S~1', 115.0000,1,     0.000,     0.000,   3,  28,0.95138, -12.9495,   1
  3037,'ROSCOE 2 0  ', 230.0000,1,     0.000,     0.000,   3,  27,1.01631,  -3.4006,   1
  3038,'ROSCOE 2 1  ', 115.0000,1,     0.000,     0.000,   3,  27,0.99768,   0.1991,   1
  3039,'ROSCOE 2 2  ',  13.8000,2,     0.000,     0.000,   3,  27,1.04000,  -0.8059,   1
  3040,'BALLINGER 0 ', 115.0000,1,     0.000,     0.000,   3,  27,1.00032,  -6.6758,   1
  3041,'SILVER 0    ', 230.0000,2,     0.000,     0.000,   3,  27,1.00000,  -7.8814,   1
  3042,'SILVER 1    ', 115.0000,2,     0.000,     0.000,   3,  27,1.00000,   4.8068,   1
  3043,'SILVER 2    ',  13.8000,2,     0.000,     0.000,   3,  27,1.04000,  -6.5263,   1
  3044,'SILVER 3    ',  13.8000,2,     0.000,     0.000,   3,  27,1.04000,  -5.9627,   1
  3045,'SILVER 4    ',  13.8000,2,     0.000,     0.000,   3,  27,1.04000,  -6.8212,   1
  3046,'ROSCOE 5 0  ', 230.0000,1,     0.000,     0.000,   3,  27,1.01346, -13.0028,   1
  3047,'ROSCOE 5 1  ', 115.0000,1,     0.000,     0.000,   3,  27,1.00743,  -2.4875,   1
  3048,'ROSCOE 5 2  ', 500.0000,2,     0.000,     0.000,   3,  27,1.04000, -19.4012,   1
  3049,'ANSON 0     ', 115.0000,2,     0.000,     0.000,   3,  27,1.00967,   1.8544,   1
  3050,'DEL RIO 0   ', 230.0000,2,     0.000,     0.000,   3,  28,1.00000,  -1.9794,   1
  3051,'DEL RIO 1   ', 115.0000,2,     0.000,     0.000,   3,  28,1.00000,  -1.4806,   1
  3052,'HUNT 0      ', 115.0000,1,     0.000,     0.000,   3,  28,0.98494, -43.8605,   1
  3053,'WINGATE 0   ', 230.0000,1,     0.000,     0.000,   3,  27,1.02576,  -6.7520,   1
  3054,'WINGATE 1   ', 115.0000,1,     0.000,     0.000,   3,  27,1.00372,  -5.1214,   1
  3055,'WINGATE 2   ',  13.8000,2,     0.000,     0.000,   3,  27,1.04000,  -3.8610,   1
  3056,'WINGATE 3   ',  13.8000,2,     0.000,     0.000,   3,  27,1.04000,  -4.0199,   1
  3057,'WINGATE 4   ',  13.8000,2,     0.000,     0.000,   3,  27,1.04000,  -4.1070,   1
  3058,'STERLING C~1', 230.0000,1,     0.000,     0.000,   3,  27,1.01031,  -2.7551,   1
  3059,'STERLING C~2', 115.0000,1,     0.000,     0.000,   3,  27,0.98472,   7.4448,   1
  3060,'STERLING C~3',  18.0000,2,     0.000,     0.000,   3,  27,1.04000,   1.0774,   1
  3061,'STERLING C~4',  18.0000,2,     0.000,     0.000,   3,  27,1.04000,  -0.0248,   1
  3062,'STERLING C~5',  18.0000,2,     0.000,     0.000,   3,  27,1.04000,  -1.4084,   1
  3063,'STERLING C~6',  18.0000,2,     0.000,     0.000,   3,  27,1.04000,  -0.8186,   1
  3064,'ROSCOE 4 0  ', 115.0000,1,     0.000,     0.000,   3,  27,1.00584,   0.3313,   1
  3065,'ROSCOE 4 1  ',  18.0000,2,     0.000,     0.000,   3,  27,1.00000,   6.4834,   1
  3066,'BRADY 0     ', 115.0000,2,     0.000,     0.000,   3,  28,1.00000, -10.0471,   1
  3067,'TRENT 1 0   ', 115.0000,1,     0.000,     0.000,   3,  27,1.01637,   0.2726,   1
  3068,'TRENT 1 1   ',  20.0000,2,     0.000,     0.000,   3,  27,1.04000,   3.1832,   1
  3069,'OVALO 0     ', 115.0000,1,     0.000,     0.000,   3,  27,0.99533,  -5.2700,   1
  3070,'NOLAN 0     ', 115.0000,1,     0.000,     0.000,   3,  27,1.01543,  -0.9526,   1
  3071,'NOLAN 1     ',  24.0000,2,     0.000,     0.000,   3,  27,1.00000,   1.3825,   1
  3072,'MILES 0     ', 115.0000,1,     0.000,     0.000,   3,  27,1.00925,  -7.3569,   1
  3073,'BRACKETTVI~3', 115.0000,1,     0.000,     0.000,   3,  28,1.00212, -32.3415,   1
  3074,'BRACKETTVI~4',  13.8000,2,     0.000,     0.000,   3,  28,1.00000, -31.0793,   1
  3075,'MASON 0     ', 115.0000,2,     0.000,     0.000,   3,  28,0.99257,   0.2671,   1
  3076,'BRACKETTVI~5', 115.0000,2,     0.000,     0.000,   3,  28,1.00193, -31.7102,   1
  3077,'ABILENE 6 0 ', 115.0000,1,     0.000,     0.000,   3,  27,1.01173,  -5.2292,   1
  3078,'HERMLEIGH 0 ', 230.0000,1,     0.000,     0.000,   3,  27,1.01403,  -5.2125,   1
  3079,'HERMLEIGH 1 ', 161.0000,1,     0.000,     0.000,   3,  27,1.00162,  -2.2450,   1
  3080,'HERMLEIGH 2 ', 115.0000,1,     0.000,     0.000,   3,  27,0.99757,  -0.4548,   1
  3081,'HERMLEIGH 3 ',  20.0000,2,     0.000,     0.000,   3,  27,1.04000,  -2.1819,   1
  3082,'MERKEL 1 0  ', 230.0000,1,     0.000,     0.000,   3,  27,1.01616,  -7.3074,   1
  3083,'MERKEL 1 1  ', 115.0000,1,     0.000,     0.000,   3,  27,1.01331,  -4.8163,   1
  3084,'MERKEL 1 2  ',  13.8000,2,     0.000,     0.000,   3,  27,1.00000,   2.5753,   1
  3085,'LORAINE 1 0 ', 115.0000,1,     0.000,     0.000,   3,  27,0.99492,   1.8954,   1
  3086,'LORAINE 1 1 ',  13.2000,2,     0.000,     0.000,   3,  27,1.00000,   5.3835,   1
  3087,'LORAINE 1 2 ',  13.2000,1,     0.000,     0.000,   3,  27,0.99492,   1.8954,   1
  3088,'ABILENE 1 0 ', 230.0000,1,     0.000,     0.000,   3,  27,1.02160, -11.3500,   1
  3089,'ABILENE 1 1 ', 161.0000,1,     0.000,     0.000,   3,  27,1.02567, -12.4411,   1
  3090,'ABILENE 1 2 ', 161.0000,1,     0.000,     0.000,   3,  27,1.03564, -12.8600,   1
  3091,'ABILENE 1 3 ', 115.0000,1,     0.000,     0.000,   3,  27,1.04919, -13.4115,   1
  3092,'ABILENE 1 4 ',  13.8000,2,     0.000,     0.000,   3,  27,1.04000,  -7.9456,   1
  3093,'ROCKSPRING~1', 115.0000,1,     0.000,     0.000,   3,  28,0.98648, -39.4031,   1
  3094,'MERKEL 2 0  ', 115.0000,1,     0.000,     0.000,   3,  27,1.01802,  -2.8142,   1
  3095,'MERKEL 2 1  ',  18.0000,2,     0.000,     0.000,   3,  27,1.04000,   5.0977,   1
  3096,'FLUVANNA 2 0', 230.0000,1,     0.000,     0.000,   3,  27,1.02433,   3.3322,   1
  3097,'FLUVANNA 2 1', 115.0000,1,     0.000,     0.000,   3,  27,1.00928,   5.9981,   1
  3098,'FLUVANNA 2 2',  13.8000,2,     0.000,     0.000,   3,  27,1.04000,   7.6369,   1
  3099,'DYESS AFB 0 ', 115.0000,1,     0.000,     0.000,   3,  27,1.01602,  -6.1296,   1
  3100,'HAWLEY 0    ', 115.0000,1,     0.000,     0.000,   3,  27,1.03020, -11.4700,   1
  3101,'BUCHANAN D~4', 115.0000,1,     0.000,     0.000,   3,  28,0.95824, -26.9493,   1
  3102,'ABILENE 3 0 ', 115.0000,1,     0.000,     0.000,   3,  27,1.03945, -13.3247,   1
  3103,'SWEETWATER~6', 115.0000,1,     0.000,     0.000,   3,  27,1.00190,   0.0981,   1
  3104,'BUCHANAN D~1', 115.0000,1,     0.000,     0.000,   3,  28,0.96866, -29.5654,   1
  3105,'BUCHANAN D~2',  13.2000,2,     0.000,     0.000,   3,  28,1.00000, -26.7031,   1
  3106,'BUCHANAN D~3',  13.2000,2,     0.000,     0.000,   3,  28,1.00000, -18.9817,   1
  3107,'INGRAM 0    ', 115.0000,1,     0.000,     0.000,   3,  28,0.98264, -45.9194,   1
  3108,'KEMPNER 0   ', 115.0000,1,     0.000,     0.000,   3,  28,0.97435, -41.8284,   1
  3109,'FLUVANNA 1 0', 115.0000,1,     0.000,     0.000,   3,  27,1.00326,   8.0691,   1
  3110,'FLUVANNA 1 1',  13.8000,2,     0.000,     0.000,   3,  27,1.04000,  15.6675,   1