@!IC,SBASE,REV,XFRRAT,NXFRAT,BASFRQ
0,  100.00, 36,     0,     1, 60.00     / PSS(R)E-36.2    MON, MAR 31 2025  20:22
TEXAS2K_SERIES24_CASE1_2016SUMMERPEAK
THIS IS A SYNTHETIC POWER SYSTEM MODEL THAT DOES NOT REPRESE
GENERAL, THRSHZ=0.0001, PQBRAK=0.7, BLOWUP=5.0, MaxIsolLvls=4, CAMaxReptSln=20, ChkDupCntLbl=0
GAUSS, ITMX=100, ACCP=1.6, ACCQ=1.6, ACCM=1.0, TOL=0.0001
NEWTON, ITMXN=20, ACCN=1.0, TOLN=0.1, VCTOLQ=0.1, VCTOLV=0.00001, DVLIM=0.99, NDVFCT=0.99
ADJUST, ADJTHR=0.005, ACCTAP=1.0, TAPLIM=0.05, SWVBND=100.0, MXTPSS=99, MXSWIM=10
TYSL, ITMXTY=20, ACCTY=1.0, TOLTY=0.00001
SOLVER, FNSL, ACTAPS=0, AREAIN=0, PHSHFT=0, DCTAPS=1, SWSHNT=0, FLATST=0, VARLIM=-1, NONDIV=0
RATING, 1, "RATE1 ", "RATING SET 1                    "
RATING, 2, "RATE2 ", "RATING SET 2                    "
RATING, 3, "RATE3 ", "RATING SET 3                    "
RATING, 4, "RATE4 ", "RATING SET 4                    "
RATING, 5, "RATE5 ", "RATING SET 5                    "
RATING, 6, "RATE6 ", "RATING SET 6                    "
RATING, 7, "RATE7 ", "RATING SET 7                    "
RATING, 8, "RATE8 ", "RATING SET 8                    "
RATING, 9, "RATE9 ", "RATING SET 9                    "
RATING,10, "RATE10", "RATING SET 10                   "
RATING,11, "RATE11", "RATING SET 11                   "
RATING,12, "RATE12", "RATING SET 12                   "
SWDRATNAM,  1, "RATE1 ", 0, "MVA", "SWD RATING SET 1                "
SWDRATNAM,  2, "RATE2 ", 0, "MVA", "SWD RATING SET 2                "
SWDRATNAM,  3, "RATE3 ", 0, "MVA", "SWD RATING SET 3                "
SWDRATNAM,  4, "RATE4 ", 0, "MVA", "SWD RATING SET 4                "
SWDRATNAM,  5, "RATE5 ", 0, "MVA", "SWD RATING SET 5                "
SWDRATNAM,  6, "RATE6 ", 0, "MVA", "SWD RATING SET 6                "
SWDRATNAM,  7, "RATE7 ", 0, "MVA", "SWD RATING SET 7                "
SWDRATNAM,  8, "RATE8 ", 0, "MVA", "SWD RATING SET 8                "
SWDRATNAM,  9, "RATE9 ", 0, "MVA", "SWD RATING SET 9                "
SWDRATNAM, 10, "RATE10", 0, "MVA", "SWD RATING SET 10               "
SWDRATNAM, 11, "RATE11", 0, "MVA", "SWD RATING SET 11               "
SWDRATNAM, 12, "RATE12", 0, "MVA", "SWD RATING SET 12               "
0 / END OF SYSTEM-WIDE DATA, BEGIN BUS DATA
@!   I,'NAME        ', BASKV, IDE,AREA,ZONE,OWNER, VM,        VA,    NVHI,   NVLO,   EVHI,   EVLO
  1001,'ODESSA 2 0  ', 115.0000,1,   1,   9,   1,0.97808, -26.5095,1.10000,0.90000,1.10000,0.90000
  1002,'PRESIDIO 2 0', 115.0000,1,   1,   9,   1,1.01043, -21.2203,1.10000,0.90000,1.10000,0.90000
  1003,'O DONNELL ~1', 115.0000,1,   1,   9,   1,1.00801, -24.3566,1.10000,0.90000,1.10000,0.90000
  1004,'O DONNELL ~2', 230.0000,2,   1,   9,   1,1.01000, -25.9514,1.10000,0.90000,1.10000,0.90000
  1005,'BIG SPRING~8', 115.0000,1,   1,   9,   1,1.00863, -20.3067,1.10000,0.90000,1.10000,0.90000
  1006,'BIG SPRING~9',  13.8000,2,   1,   9,   1,1.00000, -18.1346,1.10000,0.90000,1.10000,0.90000
  1007,'VAN HORN 0  ', 115.0000,1,   1,   9,   1,1.01958, -21.6933,1.10000,0.90000,1.10000,0.90000
  1008,'IRAAN 2 0   ', 115.0000,1,   1,   9,   1,1.01070, -11.1157,1.10000,0.90000,1.10000,0.90000
  1009,'IRAAN 2 1   ',  13.8000,2,   1,   9,   1,1.00000,  -7.7599,1.10000,0.90000,1.10000,0.90000
  1010,'PRESIDIO 1 0', 115.0000,1,   1,   9,   1,1.01730, -19.8829,1.10000,0.90000,1.10000,0.90000
  1011,'PRESIDIO 1 1',  22.0000,2,   1,   9,   1,1.01751, -18.0859,1.10000,0.90000,1.10000,0.90000
  1012,'SANDERSON 0 ', 115.0000,1,   1,   9,   1,1.00615, -27.0522,1.10000,0.90000,1.10000,0.90000
  1013,'MONAHANS 2 0', 115.0000,1,   1,   9,   1,1.00395, -18.8227,1.10000,0.90000,1.10000,0.90000
  1014,'GRANDFALLS 0', 115.0000,1,   1,   9,   1,1.00643, -15.0230,1.10000,0.90000,1.10000,0.90000
  1015,'MARFA 0     ', 115.0000,1,   1,   9,   1,1.02006, -21.3665,1.10000,0.90000,1.10000,0.90000
  1016,'GARDEN CIT~1', 115.0000,1,   1,   9,   1,1.01833, -19.3594,1.10000,0.90000,1.10000,0.90000
  1017,'ODESSA 4 0  ', 115.0000,1,   1,   9,   1,0.98080, -25.1602,1.10000,0.90000,1.10000,0.90000
  1018,'NOTREES 0   ', 115.0000,1,   1,   9,   1,0.99067, -23.9057,1.10000,0.90000,1.10000,0.90000
  1019,'MIDLAND 4 0 ', 115.0000,1,   1,   9,   1,0.99948, -26.1188,1.10000,0.90000,1.10000,0.90000
  1020,'BIG SPRING~1', 115.0000,1,   1,   9,   1,1.02954, -19.5340,1.10000,0.90000,1.10000,0.90000
  1021,'BIG SPRING~2',  13.8000,2,   1,   9,   1,1.00000, -12.9500,1.10000,0.90000,1.10000,0.90000
  1022,'O DONNELL ~3', 115.0000,1,   1,   9,   1,1.01100, -23.6427,1.10000,0.90000,1.10000,0.90000
  1023,'O DONNELL ~4',  13.8000,2,   1,   9,   1,1.01000, -14.7295,1.10000,0.90000,1.10000,0.90000
  1024,'ODESSA 6 0  ', 115.0000,1,   1,   9,   1,0.99422, -22.8528,1.10000,0.90000,1.10000,0.90000
  1025,'BIG SPRIN~14', 115.0000,1,   1,   9,   1,1.02301, -18.4567,1.10000,0.90000,1.10000,0.90000
  1026,'BIG SPRIN~15',  13.8000,2,   1,   9,   1,1.00000,  -8.9820,1.10000,0.90000,1.10000,0.90000
  1027,'MIDLAND 2 0 ', 115.0000,1,   1,   9,   1,1.00903, -29.9371,1.10000,0.90000,1.10000,0.90000
  1028,'COAHOMA 0   ', 115.0000,1,   1,   9,   1,1.01373, -25.5394,1.10000,0.90000,1.10000,0.90000
  1029,'MIDLAND 3 0 ', 115.0000,1,   1,   9,   1,1.00487, -28.9228,1.10000,0.90000,1.10000,0.90000
  1030,'ALPINE 0    ', 115.0000,1,   1,   9,   1,1.00364, -16.2876,1.10000,0.90000,1.10000,0.90000
  1031,'FORT DAVIS 0', 115.0000,1,   1,   9,   1,1.01113, -20.9805,1.10000,0.90000,1.10000,0.90000
  1032,'MCCAMEY 1 0 ', 115.0000,1,   1,   9,   1,0.98884, -14.9491,1.10000,0.90000,1.10000,0.90000
  1033,'MCCAMEY 1 1 ', 230.0000,2,   1,   9,   1,1.00000, -19.6093,1.10000,0.90000,1.10000,0.90000
  1034,'BIG SPRING~6', 115.0000,1,   1,   9,   1,1.00577, -18.4006,1.10000,0.90000,1.10000,0.90000
  1035,'BIG SPRING~7',  13.8000,2,   1,   9,   1,1.00000, -15.1111,1.10000,0.90000,1.10000,0.90000
  1036,'CRANE 0     ', 115.0000,1,   1,   9,   1,0.99170, -15.4868,1.10000,0.90000,1.10000,0.90000
  1037,'ODESSA 5 0  ', 115.0000,1,   1,   9,   1,0.97326, -26.2896,1.10000,0.90000,1.10000,0.90000
  1038,'FORT STOCK~1', 115.0000,1,   1,   9,   1,1.00496, -10.2640,1.10000,0.90000,1.10000,0.90000
  1039,'FORT STOCK~2',  22.0000,2,   1,   9,   1,1.00000,  -4.8336,1.10000,0.90000,1.10000,0.90000
  1040,'ANDREWS 0   ', 115.0000,1,   1,   9,   1,0.99394, -24.1681,1.10000,0.90000,1.10000,0.90000
  1041,'FORSAN 0    ', 115.0000,1,   1,   9,   1,1.00369, -19.2995,1.10000,0.90000,1.10000,0.90000
  1042,'FORSAN 1    ',  13.8000,1,   1,   9,   1,1.00369, -19.2995,1.10000,0.90000,1.10000,0.90000
  1043,'FORSAN 2    ',  13.8000,2,   1,   9,   1,1.00000, -16.0598,1.10000,0.90000,1.10000,0.90000
  1044,'BIG LAKE 0  ', 115.0000,1,   1,   9,   1,1.01607, -30.1428,1.10000,0.90000,1.10000,0.90000
  1045,'MIDLAND 5 0 ', 115.0000,1,   1,   9,   1,0.97752, -28.2923,1.10000,0.90000,1.10000,0.90000
  1046,'OZONA 0     ', 115.0000,1,   1,   9,   1,1.01640, -25.0800,1.10000,0.90000,1.10000,0.90000
  1047,'MONAHANS 1 0', 115.0000,1,   1,   9,   1,1.00332, -16.7365,1.10000,0.90000,1.10000,0.90000
  1048,'MONAHANS 1 1',  18.0000,1,   1,   9,   1,1.00332, -16.7365,1.10000,0.90000,1.10000,0.90000
  1049,'MONAHANS 1 2',  18.0000,1,   1,   9,   1,1.00332, -16.7365,1.10000,0.90000,1.10000,0.90000
  1050,'MONAHANS 1 3',  18.0000,2,   1,   9,   1,1.00000, -11.6507,1.10000,0.90000,1.10000,0.90000
  1051,'MONAHANS 1 4',  18.0000,2,   1,   9,   1,1.00000, -10.1677,1.10000,0.90000,1.10000,0.90000
  1052,'MONAHANS 1 5',  18.0000,2,   1,   9,   1,1.00000, -12.5058,1.10000,0.90000,1.10000,0.90000
  1053,'MONAHANS 1 6', 230.0000,1,   1,   9,   1,1.01152, -20.6683,1.10000,0.90000,1.10000,0.90000
  1054,'STANTON 0   ', 115.0000,1,   1,   9,   1,1.00921, -27.1848,1.10000,0.90000,1.10000,0.90000
  1055,'ODONNELL 0  ', 115.0000,1,   1,   9,   1,1.00125, -25.1655,1.10000,0.90000,1.10000,0.90000
  1056,'LENORAH 0   ', 115.0000,1,   1,   9,   1,1.02523, -26.1573,1.10000,0.90000,1.10000,0.90000
  1057,'LENORAH 1   ',  18.0000,1,   1,   9,   1,1.02523, -26.1573,1.10000,0.90000,1.10000,0.90000
  1058,'IRAAN 3 0   ', 115.0000,1,   1,   9,   1,1.01324, -13.6778,1.10000,0.90000,1.10000,0.90000
  1059,'IRAAN 3 1   ',  22.0000,1,   1,   9,   1,1.01324, -13.6778,1.10000,0.90000,1.10000,0.90000
  1060,'IRAAN 3 2   ',  22.0000,1,   1,   9,   1,1.01324, -13.6778,1.10000,0.90000,1.10000,0.90000
  1061,'BIG SPRIN~10', 115.0000,1,   1,   9,   1,1.00966, -21.4640,1.10000,0.90000,1.10000,0.90000
  1062,'BIG SPRIN~11',  13.8000,1,   1,   9,   1,1.00966, -21.4640,1.10000,0.90000,1.10000,0.90000
  1063,'BIG SPRIN~12',  13.8000,1,   1,   9,   1,1.00966, -21.4640,1.10000,0.90000,1.10000,0.90000
  1064,'ODESSA 3 0  ', 115.0000,1,   1,   9,   1,0.97113, -27.9526,1.10000,0.90000,1.10000,0.90000
  1065,'BIG SPRING~4', 115.0000,1,   1,   9,   1,1.00630, -19.1507,1.10000,0.90000,1.10000,0.90000
  1066,'BIG SPRING~5',  13.8000,2,   1,   9,   1,1.00000, -11.6277,1.10000,0.90000,1.10000,0.90000
  1067,'BIG SPRIN~13', 115.0000,1,   1,   9,   1,1.00068, -19.8551,1.10000,0.90000,1.10000,0.90000
  1068,'MIDLAND 1 0 ', 115.0000,1,   1,   9,   1,0.98710, -20.0084,1.10000,0.90000,1.10000,0.90000
  1069,'IRAAN 1 0   ', 115.0000,1,   1,   9,   1,1.01516, -11.2141,1.10000,0.90000,1.10000,0.90000
  1070,'IRAAN 1 1   ',  13.8000,2,   1,   9,   1,1.04000,  -6.6952,1.10000,0.90000,1.10000,0.90000
  1071,'ODESSA 1 0  ', 115.0000,1,   1,   9,   1,0.98534, -25.2281,1.10000,0.90000,1.10000,0.90000
  1072,'ODESSA 1 1  ',  18.0000,2,   1,   9,   1,1.01000, -15.8275,1.10000,0.90000,1.10000,0.90000
  1073,'ODESSA 1 2  ',  18.0000,2,   1,   9,   1,1.01000,  -9.3666,1.10000,0.90000,1.10000,0.90000
  1074,'ODESSA 1 3  ',  18.0000,2,   1,   9,   1,1.01000, -11.4336,1.10000,0.90000,1.10000,0.90000
  1075,'ODESSA 1 4  ',  18.0000,2,   1,   9,   1,1.01000, -14.2132,1.10000,0.90000,1.10000,0.90000
  1076,'ODESSA 1 5  ',  18.0000,1,   1,   9,   1,0.98534, -25.2281,1.10000,0.90000,1.10000,0.90000
  1077,'ODESSA 1 6  ',  18.0000,1,   1,   9,   1,0.98534, -25.2281,1.10000,0.90000,1.10000,0.90000
  1078,'ODESSA 1 7  ',  18.0000,2,   1,   9,   1,1.01000, -14.7338,1.10000,0.90000,1.10000,0.90000
  1079,'ODESSA 1 8  ', 500.0000,2,   1,   9,   1,1.01000, -42.7213,1.10000,0.90000,1.10000,0.90000
  1080,'ODESSA 1 9  ',  18.0000,2,   1,   9,   1,1.01000, -14.1583,1.10000,0.90000,1.10000,0.90000
  1081,'ODESSA 1 10 ', 230.0000,1,   1,   9,   1,1.01276, -22.0065,1.10000,0.90000,1.10000,0.90000
  1082,'FORT STOCK~3', 115.0000,2,   1,   9,   1,1.00000,  -8.3022,1.10000,0.90000,1.10000,0.90000
  1083,'FORT STOCK~4', 115.0000,1,   1,   9,   1,1.00836, -12.6430,1.10000,0.90000,1.10000,0.90000
  1084,'BIG SPRING~3', 115.0000,2,   1,   9,   1,1.04000, -20.7743,1.10000,0.90000,1.10000,0.90000
  1085,'KERMIT 0    ', 115.0000,1,   1,   9,   1,1.00752, -18.7977,1.10000,0.90000,1.10000,0.90000
  1086,'PECOS 0     ', 115.0000,1,   1,   9,   1,1.01367, -21.0173,1.10000,0.90000,1.10000,0.90000
  1087,'SHEFFIELD 0 ', 115.0000,1,   1,   9,   1,1.01639, -18.5065,1.10000,0.90000,1.10000,0.90000
  1088,'MCCAMEY 2 0 ', 115.0000,2,   1,   9,   1,1.00000, -15.1225,1.10000,0.90000,1.10000,0.90000
  1089,'LAMESA 0    ', 115.0000,1,   1,   9,   1,0.98307, -27.5581,1.10000,0.90000,1.10000,0.90000
  1090,'GOLDSMITH 0 ', 115.0000,2,   1,   9,   1,1.02000, -19.7632,1.10000,0.90000,1.10000,0.90000
  1091,'RALLS 2 0   ', 161.0000,1,   1,   9,   1,1.02422, -40.4355,1.10000,0.90000,1.10000,0.90000
  2001,'PARIS 3 0   ', 161.0000,1,   2,  11,   1,1.00365, -61.3302,1.10000,0.90000,1.10000,0.90000
  2002,'SAVOY 0     ', 500.0000,1,   2,  11,   1,1.01632, -62.4460,1.10000,0.90000,1.10000,0.90000
  2003,'SAVOY 1     ', 161.0000,1,   2,  11,   1,1.01530, -64.6447,1.10000,0.90000,1.10000,0.90000
  2004,'SAVOY 2     ',  13.8000,1,   2,  11,   1,1.01632, -62.4460,1.10000,0.90000,1.10000,0.90000
  2005,'SAVOY 3     ',  13.8000,1,   2,  11,   1,1.01632, -62.4460,1.10000,0.90000,1.10000,0.90000
  2006,'SAVOY 4     ',  13.8000,1,   2,  11,   1,1.01632, -62.4460,1.10000,0.90000,1.10000,0.90000
  2007,'HONEY GROV~1', 161.0000,1,   2,  11,   1,1.00484, -61.0715,1.10000,0.90000,1.10000,0.90000
  2008,'MEMPHIS 0   ', 161.0000,1,   2,  10,   1,1.00430, -41.4266,1.10000,0.90000,1.10000,0.90000
  2009,'IOWA PARK 0 ', 161.0000,1,   2,  11,   1,1.02471, -50.7992,1.10000,0.90000,1.10000,0.90000
  2010,'VERNON 2 0  ', 161.0000,1,   2,  10,   1,1.02946, -43.1091,1.10000,0.90000,1.10000,0.90000
  2011,'PANHANDLE ~2', 500.0000,1,   2,  10,   1,1.02793, -40.0532,1.10000,0.90000,1.10000,0.90000
  2012,'PANHANDLE ~3', 161.0000,1,   2,  10,   1,1.01073, -37.9682,1.10000,0.90000,1.10000,0.90000
  2013,'PANHANDLE ~4',  18.0000,2,   2,  10,   1,1.00000, -37.6002,1.10000,0.90000,1.10000,0.90000
  2014,'CHILDRESS 0 ', 161.0000,1,   2,  10,   1,1.00579, -42.2530,1.10000,0.90000,1.10000,0.90000
  2015,'FORESTBURG 0', 161.0000,1,   2,  11,   1,1.01543, -64.7030,1.10000,0.90000,1.10000,0.90000
  2016,'SHERMAN 3 0 ', 161.0000,1,   2,  11,   1,1.01603, -70.4779,1.10000,0.90000,1.10000,0.90000
  2017,'PANHANDLE ~7', 500.0000,1,   2,  10,   1,1.02989, -41.2829,1.10000,0.90000,1.10000,0.90000
  2018,'PANHANDLE ~8', 161.0000,1,   2,  10,   1,1.02103, -40.2400,1.10000,0.90000,1.10000,0.90000
  2019,'PANHANDLE ~9',  20.0000,1,   2,  10,   1,1.02989, -41.2829,1.10000,0.90000,1.10000,0.90000
  2020,'WICHITA F~12', 161.0000,1,   2,  11,   1,1.00187, -50.4712,1.10000,0.90000,1.10000,0.90000
  2021,'PARIS 2 0   ', 500.0000,1,   2,  11,   1,1.01499, -58.1405,1.10000,0.90000,1.10000,0.90000
  2022,'PARIS 2 1   ', 161.0000,1,   2,  11,   1,1.01166, -60.0094,1.10000,0.90000,1.10000,0.90000
  2023,'PARIS 2 2   ',  13.8000,2,   2,  11,   1,1.02000, -56.5740,1.10000,0.90000,1.10000,0.90000
  2024,'PARIS 2 3   ',  13.8000,2,   2,  11,   1,1.02000, -55.9075,1.10000,0.90000,1.10000,0.90000
  2025,'WICHITA F~10', 161.0000,1,   2,  11,   1,0.99999, -49.7773,1.10000,0.90000,1.10000,0.90000
  2026,'WHEELER 0   ', 161.0000,1,   2,  10,   1,1.01454, -39.0691,1.10000,0.90000,1.10000,0.90000
  2027,'DEPORT 0    ', 161.0000,1,   2,  11,   1,1.00433, -61.7383,1.10000,0.90000,1.10000,0.90000
  2028,'WICHITA FA~9', 161.0000,1,   2,  11,   1,1.00286, -52.3994,1.10000,0.90000,1.10000,0.90000
  2029,'SILVERTON 0 ', 161.0000,1,   2,  10,   1,1.01395, -41.8067,1.10000,0.90000,1.10000,0.90000
  2030,'BONHAM 0    ', 161.0000,1,   2,  11,   1,0.99304, -65.0609,1.10000,0.90000,1.10000,0.90000
  2031,'MATADOR 0   ', 161.0000,1,   2,  10,   1,1.02516, -37.0082,1.10000,0.90000,1.10000,0.90000
  2032,'ARTHUR CIT~1', 161.0000,1,   2,  11,   1,1.00660, -60.5010,1.10000,0.90000,1.10000,0.90000
  2033,'LEONARD 0   ', 161.0000,1,   2,  11,   1,0.99649, -66.4099,1.10000,0.90000,1.10000,0.90000
  2034,'GORDONVILL~1', 161.0000,1,   2,  11,   1,1.01353, -69.8828,1.10000,0.90000,1.10000,0.90000
  2035,'KNOX CITY 0 ', 161.0000,1,   2,  10,   1,1.02445, -36.9209,1.10000,0.90000,1.10000,0.90000
  2036,'WICHITA F~13', 161.0000,1,   2,  11,   1,1.00478, -50.1640,1.10000,0.90000,1.10000,0.90000
  2037,'LINDSAY 0   ', 161.0000,1,   2,  11,   1,1.02607, -64.9559,1.10000,0.90000,1.10000,0.90000
  2038,'ECTOR 0     ', 161.0000,1,   2,  11,   1,1.01235, -65.1074,1.10000,0.90000,1.10000,0.90000
  2039,'SUNSET 0    ', 161.0000,1,   2,  11,   1,1.00029, -62.3230,1.10000,0.90000,1.10000,0.90000
  2040,'CLARKSVILL~1', 161.0000,1,   2,  11,   1,1.00919, -60.6794,1.10000,0.90000,1.10000,0.90000
  2041,'PANHANDLE ~5', 161.0000,1,   2,  10,   1,1.01118, -35.6729,1.10000,0.90000,1.10000,0.90000
  2042,'PANHANDLE ~6',  18.0000,2,   2,  10,   1,1.01000, -33.0420,1.10000,0.90000,1.10000,0.90000
  2043,'SADLER 0    ', 161.0000,1,   2,  11,   1,1.01442, -70.1572,1.10000,0.90000,1.10000,0.90000
  2044,'WHITESBORO 0', 161.0000,1,   2,  11,   1,1.02155, -66.2474,1.10000,0.90000,1.10000,0.90000
  2045,'SHEPPARD A~1', 161.0000,1,   2,  11,   1,1.00153, -50.9203,1.10000,0.90000,1.10000,0.90000
  2046,'POTTSBORO 0 ', 161.0000,1,   2,  11,   1,1.01296, -69.5315,1.10000,0.90000,1.10000,0.90000
  2047,'BELLS 0     ', 161.0000,1,   2,  11,   1,1.01423, -65.5204,1.10000,0.90000,1.10000,0.90000
  2048,'CROSBYTON 0 ', 161.0000,1,   2,  10,   1,1.02718, -39.8299,1.10000,0.90000,1.10000,0.90000
  2049,'ELECTRA 0   ', 161.0000,1,   2,  10,   1,1.02204, -46.8574,1.10000,0.90000,1.10000,0.90000
  2050,'PATTONVILL~1', 161.0000,1,   2,  11,   1,0.99790, -64.3752,1.10000,0.90000,1.10000,0.90000
  2051,'HENRIETTA 0 ', 161.0000,1,   2,  11,   1,1.00103, -57.6890,1.10000,0.90000,1.10000,0.90000
  2052,'PANHANDLE~13', 161.0000,1,   2,  10,   1,1.00321, -40.3361,1.10000,0.90000,1.10000,0.90000
  2053,'BOWIE 0     ', 161.0000,1,   2,  11,   1,0.99707, -60.4349,1.10000,0.90000,1.10000,0.90000
  2054,'WICHITA FA~1', 500.0000,1,   2,  11,   1,1.00417, -48.9319,1.10000,0.90000,1.10000,0.90000
  2055,'WICHITA FA~2', 161.0000,1,   2,  11,   1,1.00354, -49.6700,1.10000,0.90000,1.10000,0.90000
  2056,'WICHITA FA~3',  18.0000,1,   2,  11,   1,1.00417, -48.9319,1.10000,0.90000,1.10000,0.90000
  2057,'WICHITA FA~4',  18.0000,2,   2,  11,   1,0.99000, -45.7361,1.10000,0.90000,1.10000,0.90000
  2058,'WHITE DEER 0', 161.0000,1,   2,  10,   1,1.00556, -35.1106,1.10000,0.90000,1.10000,0.90000
  2059,'WHITE DEER 1',  13.8000,2,   2,  10,   1,1.00000, -31.6396,1.10000,0.90000,1.10000,0.90000
  2060,'ROXTON 0    ', 161.0000,1,   2,  11,   1,1.00077, -63.1355,1.10000,0.90000,1.10000,0.90000
  2061,'VERNON 1 0  ', 161.0000,1,   2,  10,   1,1.02457, -43.5807,1.10000,0.90000,1.10000,0.90000
  2062,'VERNON 1 1  ',  18.0000,2,   2,  10,   1,1.02000, -41.2840,1.10000,0.90000,1.10000,0.90000
  2063,'DENISON 2 0 ', 161.0000,1,   2,  11,   1,1.01394, -68.9338,1.10000,0.90000,1.10000,0.90000
  2064,'SUMNER 0    ', 161.0000,1,   2,  11,   1,1.00561, -61.5628,1.10000,0.90000,1.10000,0.90000
  2065,'GAINESVILL~1', 161.0000,1,   2,  11,   1,1.02958, -66.6152,1.10000,0.90000,1.10000,0.90000
  2066,'ASPERMONT 0 ', 161.0000,1,   2,  10,   1,1.02381, -33.8642,1.10000,0.90000,1.10000,0.90000
  2067,'WICHITA F~11', 161.0000,1,   2,  11,   1,0.99786, -49.6268,1.10000,0.90000,1.10000,0.90000
  2068,'WINDTHORST 0', 161.0000,1,   2,  11,   1,1.00260, -47.3099,1.10000,0.90000,1.10000,0.90000
  2069,'HOWE 0      ', 161.0000,1,   2,  11,   1,1.03078, -69.6044,1.10000,0.90000,1.10000,0.90000
  2070,'ARCHER 2 0  ', 161.0000,1,   2,  11,   1,1.00445, -46.7861,1.10000,0.90000,1.10000,0.90000
  2071,'ARCHER 2 1  ',  18.0000,2,   2,  11,   1,1.00000, -43.1157,1.10000,0.90000,1.10000,0.90000
  2072,'COLLINSVIL~1', 161.0000,1,   2,  11,   1,1.02419, -67.7985,1.10000,0.90000,1.10000,0.90000
  2073,'JAYTON 0    ', 161.0000,1,   2,  10,   1,1.02513, -31.2536,1.10000,0.90000,1.10000,0.90000
  2074,'JAYTON 1    ', 115.0000,1,   2,  10,   1,1.01276, -29.1565,1.10000,0.90000,1.10000,0.90000
  2075,'JAYTON 2    ', 115.0000,1,   2,  10,   1,1.01276, -29.1565,1.10000,0.90000,1.10000,0.90000
  2076,'JAYTON 3    ',  24.0000,2,   2,  10,   1,1.04000, -30.3974,1.10000,0.90000,1.10000,0.90000
  2077,'MUENSTER 1 0', 161.0000,1,   2,  11,   1,1.02603, -62.8577,1.10000,0.90000,1.10000,0.90000
  2078,'MUENSTER 1 1',  13.8000,2,   2,  11,   1,1.02000, -59.5486,1.10000,0.90000,1.10000,0.90000
  2079,'PADUCAH 0   ', 161.0000,1,   2,  10,   1,1.02975, -41.9174,1.10000,0.90000,1.10000,0.90000
  2080,'NOCONA 0    ', 161.0000,1,   2,  11,   1,1.00549, -60.1722,1.10000,0.90000,1.10000,0.90000
  2081,'DODD CITY 0 ', 161.0000,1,   2,  11,   1,1.00703, -65.8957,1.10000,0.90000,1.10000,0.90000
  2082,'WICHITA FA~5', 161.0000,1,   2,  11,   1,1.00830, -50.4792,1.10000,0.90000,1.10000,0.90000
  2083,'WICHITA FA~6',  20.0000,2,   2,  11,   1,1.02000, -48.9027,1.10000,0.90000,1.10000,0.90000
  2084,'WICHITA FA~7',  20.0000,1,   2,  11,   1,1.00830, -50.4792,1.10000,0.90000,1.10000,0.90000
  2085,'WICHITA FA~8',  20.0000,1,   2,  11,   1,1.00830, -50.4792,1.10000,0.90000,1.10000,0.90000
  2086,'MONTAGUE 0  ', 161.0000,1,   2,  11,   1,1.00239, -61.5210,1.10000,0.90000,1.10000,0.90000
  2087,'SPUR 0      ', 161.0000,1,   2,  10,   1,1.02423, -34.1924,1.10000,0.90000,1.10000,0.90000
  2088,'ARCHER 1 0  ', 161.0000,1,   2,  11,   1,1.00345, -46.9711,1.10000,0.90000,1.10000,0.90000
  2089,'ARCHER 1 1  ',  24.0000,2,   2,  11,   1,1.00000, -43.3763,1.10000,0.90000,1.10000,0.90000
  2090,'ANNONA 0    ', 161.0000,1,   2,  11,   1,1.00508, -62.3169,1.10000,0.90000,1.10000,0.90000
  2091,'SEYMOUR 0   ', 161.0000,1,   2,  10,   1,1.02562, -40.5023,1.10000,0.90000,1.10000,0.90000
  2092,'DENISON 1 0 ', 161.0000,1,   2,  11,   1,1.01253, -67.3032,1.10000,0.90000,1.10000,0.90000
  2093,'PANHANDLE~10', 161.0000,1,   2,  10,   1,1.01592, -39.0476,1.10000,0.90000,1.10000,0.90000
  2094,'PANHANDLE~11',  13.8000,1,   2,  10,   1,1.01592, -39.0476,1.10000,0.90000,1.10000,0.90000
  2095,'PANHANDLE~12',  13.8000,1,   2,  10,   1,1.01592, -39.0476,1.10000,0.90000,1.10000,0.90000
  2096,'RALLS 1 0   ', 500.0000,1,   2,  10,   1,1.02587, -40.2133,1.10000,0.90000,1.10000,0.90000
  2097,'RALLS 1 1   ', 230.0000,1,   2,  10,   1,1.02264, -39.1226,1.10000,0.90000,1.10000,0.90000
  2098,'RALLS 1 2   ', 161.0000,1,   2,  10,   1,1.02471, -40.2289,1.10000,0.90000,1.10000,0.90000
  2099,'RALLS 1 3   ',  18.0000,2,   2,  10,   1,1.02000, -40.0676,1.10000,0.90000,1.10000,0.90000
  2100,'RALLS 1 4   ',  18.0000,2,   2,  10,   1,1.02000, -37.5980,1.10000,0.90000,1.10000,0.90000
  2101,'SHERMAN 1 0 ', 500.0000,1,   2,  11,   1,1.01665, -63.3814,1.10000,0.90000,1.10000,0.90000
  2102,'SHERMAN 1 1 ', 161.0000,1,   2,  11,   1,1.01754, -64.7798,1.10000,0.90000,1.10000,0.90000
  2103,'SHERMAN 1 2 ',  20.0000,1,   2,  11,   1,1.01665, -63.3814,1.10000,0.90000,1.10000,0.90000
  2104,'SHERMAN 1 3 ',  20.0000,1,   2,  11,   1,1.01665, -63.3814,1.10000,0.90000,1.10000,0.90000
  2105,'SHERMAN 1 4 ',  20.0000,1,   2,  11,   1,1.01665, -63.3814,1.10000,0.90000,1.10000,0.90000
  2106,'WHITEWRIGH~1', 161.0000,1,   2,  11,   1,0.99533, -66.9754,1.10000,0.90000,1.10000,0.90000
  2107,'SHERMAN 2 0 ', 161.0000,1,   2,  11,   1,1.01235, -65.5836,1.10000,0.90000,1.10000,0.90000
  2108,'ROCHESTER 0 ', 161.0000,1,   2,  10,   1,1.00762, -47.3280,1.10000,0.90000,1.10000,0.90000
  2109,'BURKBURNET~1', 161.0000,1,   2,  11,   1,1.01286, -51.7653,1.10000,0.90000,1.10000,0.90000
  2110,'MUENSTER 2 0', 161.0000,1,   2,  11,   1,1.02903, -63.7953,1.10000,0.90000,1.10000,0.90000
  2111,'ARCHER CIT~1', 161.0000,1,   2,  11,   1,1.00203, -52.1852,1.10000,0.90000,1.10000,0.90000
  2112,'PETROLIA 0  ', 161.0000,1,   2,  11,   1,1.00149, -54.0468,1.10000,0.90000,1.10000,0.90000
  2113,'PARIS 1 0   ', 500.0000,1,   2,  11,   1,1.01442, -57.7325,1.10000,0.90000,1.10000,0.90000
  2114,'PARIS 1 1   ', 161.0000,1,   2,  11,   1,1.01241, -58.9673,1.10000,0.90000,1.10000,0.90000
  2115,'PARIS 1 2   ',  13.8000,2,   2,  11,   1,1.00000, -53.7046,1.10000,0.90000,1.10000,0.90000
  2116,'PARIS 1 3   ',  13.8000,2,   2,  11,   1,1.00000, -55.6314,1.10000,0.90000,1.10000,0.90000
  2117,'PARIS 1 4   ',  13.8000,2,   2,  11,   1,1.00000, -53.0781,1.10000,0.90000,1.10000,0.90000
  2118,'PARIS 1 5   ',  13.8000,2,   2,  11,   1,1.00000, -52.5756,1.10000,0.90000,1.10000,0.90000
  2119,'PARIS 1 6   ',  13.8000,2,   2,  11,   1,1.00000, -55.1770,1.10000,0.90000,1.10000,0.90000
  2120,'PARIS 1 7   ',  13.8000,2,   2,  11,   1,1.01000, -52.8326,1.10000,0.90000,1.10000,0.90000
  2121,'BAGWELL 0   ', 161.0000,1,   2,  11,   1,1.00815, -61.2827,1.10000,0.90000,1.10000,0.90000
  2122,'TELEPHONE 0 ', 161.0000,1,   2,  11,   1,0.99955, -62.3714,1.10000,0.90000,1.10000,0.90000
  2123,'PANHANDLE ~1', 161.0000,2,   2,  10,   1,1.00000, -34.8114,1.10000,0.90000,1.10000,0.90000
  2124,'VAN ALSTYN~1', 161.0000,1,   2,  11,   1,0.99459, -67.9390,1.10000,0.90000,1.10000,0.90000
  2125,'TIOGA 0     ', 161.0000,1,   2,  11,   1,1.00161, -67.5726,1.10000,0.90000,1.10000,0.90000
  2126,'VALLEY VIE~1', 161.0000,1,   2,  11,   1,1.01648, -67.6489,1.10000,0.90000,1.10000,0.90000
  2127,'MIAMI 0     ', 500.0000,2,   2,  10,   1,1.04000, -41.9133,1.10000,0.90000,1.10000,0.90000
  2128,'MIAMI 1     ', 161.0000,1,   2,  10,   1,1.02375, -40.4897,1.10000,0.90000,1.10000,0.90000
  2129,'TRENTON 0   ', 161.0000,1,   2,  11,   1,0.99840, -66.8783,1.10000,0.90000,1.10000,0.90000
  2130,'HASKELL 0   ', 161.0000,1,   2,  10,   1,1.00928, -46.0463,1.10000,0.90000,1.10000,0.90000
  2131,'HASKELL 1   ', 115.0000,1,   2,  10,   1,1.00419, -43.6573,1.10000,0.90000,1.10000,0.90000
  2132,'HASKELL 2   ', 115.0000,1,   2,  10,   1,1.02045, -45.3656,1.10000,0.90000,1.10000,0.90000
  2133,'SAINT JO 0  ', 161.0000,1,   2,  11,   1,1.02174, -62.3783,1.10000,0.90000,1.10000,0.90000
  3001,'KERRVILLE 0 ', 230.0000,1,   3,  28,   1,1.01151, -47.0611,1.10000,0.90000,1.10000,0.90000
  3002,'KERRVILLE 1 ', 115.0000,1,   3,  28,   1,0.99948, -49.5769,1.10000,0.90000,1.10000,0.90000
  3003,'SWEETWATER~4', 115.0000,1,   3,  27,   1,1.00057, -22.1758,1.10000,0.90000,1.10000,0.90000
  3004,'SWEETWATER~5',  18.0000,2,   3,  27,   1,1.00000, -20.5461,1.10000,0.90000,1.10000,0.90000
  3005,'LEAKEY 0    ', 115.0000,1,   3,  28,   1,1.01479, -50.1064,1.10000,0.90000,1.10000,0.90000
  3006,'HAMLIN 0    ', 115.0000,1,   3,  27,   1,1.00409, -31.2335,1.10000,0.90000,1.10000,0.90000
  3007,'MERKEL 3 0  ', 115.0000,1,   3,  27,   1,1.02155, -28.8738,1.10000,0.90000,1.10000,0.90000
  3008,'COLEMAN 0   ', 115.0000,1,   3,  27,   1,1.00485, -37.7425,1.10000,0.90000,1.10000,0.90000
  3009,'SONORA 0    ', 115.0000,1,   3,  28,   1,1.01523, -34.1136,1.10000,0.90000,1.10000,0.90000
  3010,'CAMP WOOD 0 ', 115.0000,1,   3,  28,   1,1.00007, -49.1960,1.10000,0.90000,1.10000,0.90000
  3011,'LLANO 0     ', 115.0000,1,   3,  28,   1,1.01449, -52.2830,1.10000,0.90000,1.10000,0.90000
  3012,'WILLOW CIT~1', 115.0000,1,   3,  28,   1,1.01603, -51.9043,1.10000,0.90000,1.10000,0.90000
  3013,'ABILENE 4 0 ', 115.0000,1,   3,  27,   1,1.02260, -32.4068,1.10000,0.90000,1.10000,0.90000
  3014,'KINGSLAND 0 ', 115.0000,1,   3,  28,   1,1.01647, -44.1458,1.10000,0.90000,1.10000,0.90000
  3015,'ROSCOE 6 0  ', 115.0000,1,   3,  27,   1,1.00100, -21.3505,1.10000,0.90000,1.10000,0.90000
  3016,'BLACKWELL 0 ', 115.0000,1,   3,  27,   1,1.01003, -25.9120,1.10000,0.90000,1.10000,0.90000
  3017,'BLACKWELL 1 ',  18.0000,2,   3,  27,   1,1.01000, -20.7115,1.10000,0.90000,1.10000,0.90000
  3018,'CHRISTOVAL 0', 230.0000,1,   3,  27,   1,1.02876, -33.6134,1.10000,0.90000,1.10000,0.90000
  3019,'CHRISTOVAL 1', 115.0000,1,   3,  27,   1,1.02615, -34.9527,1.10000,0.90000,1.10000,0.90000
  3020,'CHRISTOVAL 2',  13.8000,2,   3,  27,   1,1.03000, -29.4888,1.10000,0.90000,1.10000,0.90000
  3021,'LUEDERS 0   ', 115.0000,1,   3,  27,   1,1.00741, -39.9447,1.10000,0.90000,1.10000,0.90000
  3022,'COLORADO C~1', 115.0000,1,   3,  27,   1,0.99381, -23.2278,1.10000,0.90000,1.10000,0.90000
  3023,'STAMFORD 0  ', 115.0000,1,   3,  27,   1,1.02616, -31.6683,1.10000,0.90000,1.10000,0.90000
  3024,'ELDORADO 0  ', 115.0000,1,   3,  28,   1,1.02123, -34.9833,1.10000,0.90000,1.10000,0.90000
  3025,'SAN SABA 0  ', 115.0000,1,   3,  28,   1,1.00342, -39.9530,1.10000,0.90000,1.10000,0.90000
  3026,'ABILENE 2 0 ', 230.0000,1,   3,  27,   1,1.03198, -41.9557,1.10000,0.90000,1.10000,0.90000
  3027,'ABILENE 2 1 ', 115.0000,1,   3,  27,   1,1.01869, -42.0760,1.10000,0.90000,1.10000,0.90000
  3028,'ABILENE 2 2 ',  18.0000,2,   3,  27,   1,1.04000, -39.3768,1.10000,0.90000,1.10000,0.90000
  3029,'LOMETA 0    ', 115.0000,1,   3,  28,   1,1.02682, -50.2427,1.10000,0.90000,1.10000,0.90000
  3030,'SAN ANGELO~1', 115.0000,1,   3,  27,   1,1.01775, -43.0439,1.10000,0.90000,1.10000,0.90000
  3031,'TUSCOLA 0   ', 115.0000,1,   3,  27,   1,1.00326, -29.7014,1.10000,0.90000,1.10000,0.90000
  3032,'ABILENE 7 0 ', 115.0000,1,   3,  27,   1,1.00495, -31.0820,1.10000,0.90000,1.10000,0.90000
  3033,'SNYDER 1 0  ', 115.0000,1,   3,  27,   1,1.00725, -20.5798,1.10000,0.90000,1.10000,0.90000
  3034,'SNYDER 1 1  ',  22.0000,2,   3,  27,   1,1.03000, -11.3016,1.10000,0.90000,1.10000,0.90000
  3035,'CHEROKEE 0  ', 115.0000,1,   3,  28,   1,1.00503, -40.7589,1.10000,0.90000,1.10000,0.90000
  3036,'RICHLAND S~1', 115.0000,1,   3,  28,   1,1.00498, -39.7725,1.10000,0.90000,1.10000,0.90000
  3037,'ROSCOE 2 0  ', 230.0000,1,   3,  27,   1,1.02962, -30.9422,1.10000,0.90000,1.10000,0.90000
  3038,'ROSCOE 2 1  ', 115.0000,1,   3,  27,   1,1.00224, -25.2648,1.10000,0.90000,1.10000,0.90000
  3039,'ROSCOE 2 2  ',  13.8000,2,   3,  27,   1,1.04000, -28.3687,1.10000,0.90000,1.10000,0.90000
  3040,'BALLINGER 0 ', 115.0000,1,   3,  27,   1,0.99808, -37.3937,1.10000,0.90000,1.10000,0.90000
  3041,'SILVER 0    ', 230.0000,1,   3,  27,   1,1.02633, -33.4048,1.10000,0.90000,1.10000,0.90000
  3042,'SILVER 1    ', 115.0000,1,   3,  27,   1,1.00305, -23.0371,1.10000,0.90000,1.10000,0.90000
  3043,'SILVER 2    ',  13.8000,1,   3,  27,   1,1.02633, -33.4048,1.10000,0.90000,1.10000,0.90000
  3044,'SILVER 3    ',  13.8000,1,   3,  27,   1,1.02633, -33.4048,1.10000,0.90000,1.10000,0.90000
  3045,'SILVER 4    ',  13.8000,1,   3,  27,   1,1.02633, -33.4048,1.10000,0.90000,1.10000,0.90000
  3046,'ROSCOE 5 0  ', 230.0000,1,   3,  27,   1,1.02872, -38.7230,1.10000,0.90000,1.10000,0.90000
  3047,'ROSCOE 5 1  ', 115.0000,1,   3,  27,   1,1.01076, -24.7260,1.10000,0.90000,1.10000,0.90000
  3048,'ROSCOE 5 2  ', 500.0000,2,   3,  27,   1,1.04000, -44.9604,1.10000,0.90000,1.10000,0.90000
  3049,'ANSON 0     ', 115.0000,1,   3,  27,   1,1.00684, -34.4562,1.10000,0.90000,1.10000,0.90000
  3050,'DEL RIO 0   ', 230.0000,1,   3,  28,   1,1.01230, -34.7867,1.10000,0.90000,1.10000,0.90000
  3051,'DEL RIO 1   ', 115.0000,1,   3,  28,   1,0.99488, -36.8490,1.10000,0.90000,1.10000,0.90000
  3052,'HUNT 0      ', 115.0000,1,   3,  28,   1,1.00305, -50.3248,1.10000,0.90000,1.10000,0.90000
  3053,'WINGATE 0   ', 230.0000,1,   3,  27,   1,1.03077, -31.6449,1.10000,0.90000,1.10000,0.90000
  3054,'WINGATE 1   ', 115.0000,1,   3,  27,   1,1.00987, -30.5025,1.10000,0.90000,1.10000,0.90000
  3055,'WINGATE 2   ',  13.8000,2,   3,  27,   1,1.04000, -28.7619,1.10000,0.90000,1.10000,0.90000