1   'GENSAL'   1   8.96   0.04   0.06   23.64   0.0   0.146   0.0969   0.0608   0.04   0.0336   0.0   0.0   /
2   'GENROU'   1   6.0   0.033   0.54   0.078   6.4   0.0   0.8958   0.8645   0.1189   0.1969   0.089   0.0521   0.0   0.0   /
3   'GENROU'   1   5.89   0.033   0.6   0.07   3.01   0.0   1.313   1.258   0.1813   0.25   0.107   0.0742   0.0   0.0   /

1 'ESST3A' 1   0.00000     0.200000     -.200000      6.79000      1.00000      10.0000      200.000      0.00000      99.0000     -99.0000    
  1.00000      3.77000      3.85000      4.52000      1.01500     0.155000      6.77500      0.00000     0.400000      1.00000      0.00000    / 
2 'ESST4B' 1  0.200000E-01  3.15000      3.15000      1.00000     -.870000     0.166660E-01  1.00000      0.00000      1.00000     -.870000    
  0.00000      6.50000      0.00000      8.00000     0.800000E-01  0.00000      0.00000     / WPHX ST6  12.500