1   'GENSAL'   1   8.96   0.04   0.06   23.64   0.0   0.146   0.0969   0.0608   0.04   0.0336   0.0   0.0   /
7   'GENROU'   1   6.0   0.033   0.54   0.078   6.4   0.0   0.8958   0.8645   0.1189   0.1969   0.089   0.0521   0.0   0.0   /
9   'GENROU'   1   5.89   0.033   0.6   0.07   3.01   0.0   1.313   1.258   0.1813   0.25   0.107   0.0742   0.0   0.0   /
7   'IEEET1'   1   0.06   20.0   0.2   1.16614        
-0.0   0.0   0.314   0.063   0.35        
0   2.985   0.104   3.98   0.293   /
1   'IEEET1'   1   0.06   20.0   0.2   1.172        
-0.0   0.0   0.314   0.063   0.35        
0   3.0   0.104   4.0   0.293   /
7   'ST2CUT'   1   6   1   1   1        
0.0   0.5   0.0   0.0   10.0        
10.0   1.3   0.2   1.3   0.02        
0.0   0.0   0.05   -0.05   2.0        
0   /
7   'IEEEG3'   1   0.04   1.0   18.0000   -18.0000        
180.0000   0   0.05   0.31   5.0        
1.0000   0.5   1.0   1.5   1   /