03/11/02JOFORPT200.02000SPORTUG 100.0 SE
BUS DATA FOLLOWS                   1254 ITEMS (HEADER)
   1 P-1           1201  3 1.0400  -5.00     0.00     0.00   432.07    0.00  380.00 1.0400 3000.00-3000.00  0.0000  0.0000    0    1
   2 P-2           1201  0 1.0000 -13.21   868.10     0.00     0.00    0.00  380.00 0.0000   0.000   0.000  0.0000  0.0000    0    2
   3 P-3           1201  0 1.0000   1.27    41.52     0.00     0.00    0.00  380.00 0.0000   0.000   0.000  0.0000  0.0000    0    3
   4 P-4           1201  2 1.0000   5.88     0.00     0.00   594.07    0.00  380.00 1.0400 3000.00-3000.00  0.0000  0.0000    0    4
   5 P-5           1201  2 1.0000  -4.07     0.00     0.00   234.21    0.00  380.00 1.0400 3000.00-3000.00  0.0000  0.0000    0    5
   6 P-6           1201  0 1.0000 -14.80   969.17     0.00     0.00    0.00  380.00 0.0000   0.000   0.000  0.0000  0.0000    0    6
   7 P-7           1201  2 1.0000 -10.10     0.00     0.00   175.47    0.00  380.00 1.0400 3000.00-3000.00  0.0000  0.0000    0    7
   8 P-9           1201  2 1.0000  -7.23     0.00     0.00   181.42    0.00  380.00 1.0400 3000.00-3000.00  0.0000  0.0000    0    8
   9 P-10          1201  0 1.0000 -13.95    83.83     0.00     0.00    0.00  380.00 0.0000   0.000   0.000  0.0000  0.0000    0    9
  10 P-11          1201  0 1.0000 -22.80   205.27     0.00     0.00    0.00  380.00 0.0000   0.000   0.000  0.0000  0.0000    0   10
  11 P-12          1201  0 1.0000 -17.81    66.60     0.00     0.00    0.00  380.00 0.0000   0.000   0.000  0.0000  0.0000    0   11
  12 P-13          1201  0 1.0000 -22.84    83.83     0.00     0.00    0.00  380.00 0.0000   0.000   0.000  0.0000  0.0000    0   12
  13 P-14          1201  0 1.0000 -18.95   125.36     0.00     0.00    0.00  380.00 0.0000   0.000   0.000  0.0000  0.0000    0   13
  14 P-15          1201  2 1.0000 -16.19     0.00     0.00   327.89    0.00  380.00 1.0400 3000.00-3000.00  0.0000  0.0000    0   14
  15 P-16          1201  0 1.0000 -20.68   365.10     0.00     0.00    0.00  380.00 0.0000   0.000   0.000  0.0000  0.0000    0   15
  16 P-17          1201  0 1.0000 -20.64    83.83     0.00     0.00    0.00  380.00 0.0000   0.000   0.000  0.0000  0.0000    0   16
  17 P-18          1201  0 1.0000 -18.07   243.66     0.00     0.00    0.00  380.00 0.0000   0.000   0.000  0.0000  0.0000    0   17
  18 P-19          1201  0 1.0000 -18.11   208.41     0.00     0.00    0.00  380.00 0.0000   0.000   0.000  0.0000  0.0000    0   18
  19 P-20          1201  2 1.0000 -10.20     0.00     0.00   569.54    0.00  380.00 1.0400 3000.00-3000.00  0.0000  0.0000    0   19
  20 P-21          1201  0 1.0000 -12.17   766.24  -400.00     0.00    0.00  380.00 0.0000   0.000   0.000  0.0000  0.0000    0   20
  21 P-22          1201  0 1.0000  -9.79   436.40  -200.00     0.00    0.00  380.00 0.0000   0.000   0.000  0.0000  0.0000    0   21
  22 P-23          1201  0 1.0000 -14.17   204.49  -100.00     0.00    0.00  380.00 0.0000   0.000   0.000  0.0000  0.0000    0   22
  23 P-24          1201  2 1.0000   5.44     0.00     0.00   877.35    0.00  380.00 1.0400 3000.00-3000.00  0.0000  0.0000    0   23
  24 P-26          1201  2 1.0000  18.51     0.00     0.00   936.09    0.00  380.00 1.0400 3000.00-3000.00  0.0000  0.0000    0   24
  25 E-1           2202  0 1.0000  -1.28   298.79     0.00     0.00    0.00  380.00 0.0000   0.000   0.000  0.0000  0.0000    0   25
  26 E-2           2203  0 1.0000  16.84   414.82     0.00     0.00    0.00  380.00 0.0000   0.000   0.000  0.0000  0.0000    0   26
  27 E-3           2217  2 1.0000   0.42     0.00     0.00   155.31    0.00  380.00 1.0400 3000.00-3000.00  0.0000  0.0000    0   27
  28 E-4           2217  2 1.0000  20.79     0.00     0.00   711.34    0.00  380.00 1.0400 3000.00-3000.00  0.0000  0.0000    0   28
  29 E-5           2217  2 1.0000  -0.44     0.00     0.00   802.19    0.00  380.00 1.0400 3000.00-3000.00  0.0000  0.0000    0   29
  30 E-6           2203  0 1.0000   8.42   414.82     0.00     0.00    0.00  380.00 0.0000   0.000   0.000  0.0000  0.0000    0   30
  31 E-7           2217  2 1.0000  16.10     0.00     0.00   155.31    0.00  380.00 1.0400 3000.00-3000.00  0.0000  0.0000    0   31
  32 E-8           2217  2 1.0000  16.56     0.00     0.00   398.38    0.00  380.00 1.0400 3000.00-3000.00  0.0000  0.0000    0   32
  33 E-9           2217  2 1.0000  21.84     0.00     0.00   521.08    0.00  380.00 1.0400 3000.00-3000.00  0.0000  0.0000    0   33
  34 E-10          2202  0 1.0000  -9.29   298.79     0.00     0.00    0.00  380.00 0.0000   0.000   0.000  0.0000  0.0000    0   34
  35 E-11          2204  0 1.0000   4.36   134.02     0.00     0.00    0.00  380.00 0.0000   0.000   0.000  0.0000  0.0000    0   35
  36 E-12          2202  0 1.0000 -17.41   298.82  -300.00     0.00    0.00  380.00 0.0000   0.000   0.000  0.0000  0.0000    0   36
  37 E-13          2205  0 1.0000  -1.97   199.92     0.00     0.00    0.00  380.00 0.0000   0.000   0.000  0.0000  0.0000    0   37
  38 E-14          2204  0 1.0000   3.51   134.02     0.00     0.00    0.00  380.00 0.0000   0.000   0.000  0.0000  0.0000    0   38
  39 E-E_Arka      2217  2 1.0000   3.97     0.00     0.00   168.52    0.00  380.00 1.0400 3000.00-3000.00  0.0000  0.0000    0   39
  40 E-16          2202  0 1.0000 -18.55   298.82  -200.00     0.00    0.00  380.00 0.0000   0.000   0.000  0.0000  0.0000    0   40
  41 E-17          2205  0 1.0000  -4.58   199.92     0.00     0.00    0.00  380.00 0.0000   0.000   0.000  0.0000  0.0000    0   41
  42 E-18          2217  2 1.0000   5.85     0.00     0.00   296.15    0.00  380.00 1.0400 3000.00-3000.00  0.0000  0.0000    0   42
  43 E-19          2205  0 1.0000  -0.33   199.92     0.00     0.00    0.00  380.00 0.0000   0.000   0.000  0.0000  0.0000    0   43
  44 E-20          2202  0 1.0000 -25.48   298.82  -200.00     0.00    0.00  380.00 0.0000   0.000   0.000  0.0000  0.0000    0   44
  45 E-21          2213  0 1.0000  -2.23    79.67     0.00     0.00    0.00  380.00 0.0000   0.000   0.000  0.0000  0.0000    0   45
  46 E-22          2217  2 1.0000   3.49     0.00     0.00   296.15    0.00  380.00 1.0400 3000.00-3000.00  0.0000  0.0000    0   46
  47 E-23          2213  0 1.0000   7.80    79.67     0.00     0.00    0.00  380.00 0.0000   0.000   0.000  0.0000  0.0000    0   47
  48 E-24          2205  0 1.0000  -4.52   199.92     0.00     0.00    0.00  380.00 0.0000   0.000   0.000  0.0000  0.0000    0   48
  49 E-25          2205  0 1.0000  -1.00   199.92     0.00     0.00    0.00  380.00 0.0000   0.000   0.000  0.0000  0.0000    0   49
  50 E-26          2217  2 1.0000  17.16     0.00     0.00   296.15    0.00  380.00 1.0400 3000.00-3000.00  0.0000  0.0000    0   50
  51 E-27          2217  2 1.0000  10.50     0.00     0.00   508.66    0.00  380.00 1.0400 3000.00-3000.00  0.0000  0.0000    0   51
  52 E-28          2217  2 1.0000  10.38     0.00     0.00   296.15    0.00  380.00 1.0400 3000.00-3000.00  0.0000  0.0000    0   52
  53 E-29          2217  2 1.0000   7.28     0.00     0.00   283.44    0.00  380.00 1.0400 3000.00-3000.00  0.0000  0.0000    0   53
  54 E-30          2217  2 1.0000   7.08     0.00     0.00   400.71    0.00  380.00 1.0400 3000.00-3000.00  0.0000  0.0000    0   54
  55 E-31          2202  0 1.0000  -3.45   298.79     0.00     0.00    0.00  380.00 0.0000   0.000   0.000  0.0000  0.0000    0   55
  56 E-32          2213  0 1.0000   5.30    79.67     0.00     0.00    0.00  380.00 0.0000   0.000   0.000  0.0000  0.0000    0   56
  57 E-33          2204  0 1.0000   3.44   134.02     0.00     0.00    0.00  380.00 0.0000   0.000   0.000  0.0000  0.0000    0   57
  58 E-34          2205  0 1.0000  -5.15   199.92     0.00     0.00    0.00  380.00 0.0000   0.000   0.000  0.0000  0.0000    0   58
  59 E-35          2205  0 1.0000  -4.21   199.92     0.00     0.00    0.00  380.00 0.0000   0.000   0.000  0.0000  0.0000    0   59
  60 E-36          2213  0 1.0000  -4.32    79.67     0.00     0.00    0.00  380.00 0.0000   0.000   0.000  0.0000  0.0000    0   60
  61 E-37          2217  2 1.0000   9.58     0.00     0.00   296.15    0.00  380.00 1.0400 3000.00-3000.00  0.0000  0.0000    0   61
  62 E-38          2205  0 1.0000  -6.76   199.92     0.00     0.00    0.00  380.00 0.0000   0.000   0.000  0.0000  0.0000    0   62
  63 E-39          2213  0 1.0000   6.93    79.67     0.00     0.00    0.00  380.00 0.0000   0.000   0.000  0.0000  0.0000    0   63
  64 E-40          2217  2 1.0000  -0.19     0.00     0.00   155.31    0.00  380.00 1.0400 3000.00-3000.00  0.0000  0.0000    0   64
  65 E-41          2206  0 1.0000   5.35   132.31  -100.00     0.00    0.00  380.00 0.0000   0.000   0.000  0.0000  0.0000    0   65
  66 E-42          2208  0 1.0000  46.55   134.02     0.00     0.00    0.00  380.00 0.0000   0.000   0.000  0.0000  0.0000    0   66
  67 E-43          2207  0 1.0000  -3.38    50.50     0.00     0.00    0.00  380.00 0.0000   0.000   0.000  0.0000  0.0000    0   67
  68 E-44          2217  2 1.0000  12.89     0.00     0.00   296.15    0.00  380.00 1.0400 3000.00-3000.00  0.0000  0.0000    0   68
  69 E-45          2213  0 1.0000   4.69    79.67     0.00     0.00    0.00  380.00 0.0000   0.000   0.000  0.0000  0.0000    0   69
  70 E-46          2213  0 1.0000   0.55    79.67     0.00     0.00    0.00  380.00 0.0000   0.000   0.000  0.0000  0.0000    0   70
  71 E-47          2217  2 1.0000  11.53     0.00     0.00   296.15    0.00  380.00 1.0400 3000.00-3000.00  0.0000  0.0000    0   71
  72 E-48          2217  2 1.0000  66.73     0.00     0.00   296.15    0.00  380.00 1.0400 3000.00-3000.00  0.0000  0.0000    0   72
  73 E-49          2213  0 1.0000   3.06    79.67     0.00     0.00    0.00  380.00 0.0000   0.000   0.000  0.0000  0.0000    0   73
  74 E-50          2202  0 1.0000  -0.40   298.79     0.00     0.00    0.00  380.00 0.0000   0.000   0.000  0.0000  0.0000    0   74
  75 E_Biesca      2217  2 1.0000  45.24     0.00     0.00   296.15    0.00  380.00 1.0400 3000.00-3000.00  0.0000  0.0000    0   75
  76 E-52          2217  2 1.0000  10.92     0.00     0.00   296.15    0.00  380.00 1.0400 3000.00-3000.00  0.0000  0.0000    0   76
  77 E-53          2206  0 1.0000  14.04   132.31  -200.00     0.00    0.00  380.00 0.0000   0.000   0.000  0.0000  0.0000    0   77
  78 E-54          2217  2 1.0000  53.12     0.00     0.00   296.15    0.00  380.00 1.0400 3000.00-3000.00  0.0000  0.0000    0   78
  79 E-55          2217  2 1.0000   4.38     0.00     0.00   296.15    0.00  380.00 1.0400 3000.00-3000.00  0.0000  0.0000    0   79
  80 E-56          2217  2 1.0000  10.53     0.00     0.00   296.15    0.00  380.00 1.0400 3000.00-3000.00  0.0000  0.0000    0   80
  81 E-57          2217  2 1.0000  70.58     0.00     0.00   296.15    0.00  380.00 1.0400 3000.00-3000.00  0.0000  0.0000    0   81
  82 E-58          2206  0 1.0000   6.31   132.31  -100.00     0.00    0.00  380.00 0.0000   0.000   0.000  0.0000  0.0000    0   82
  83 E-59          2217  2 1.0000  61.83     0.00     0.00   296.15    0.00  380.00 1.0400 3000.00-3000.00  0.0000  0.0000    0   83
  84 E-60          2217  2 1.0000  62.99     0.00     0.00   296.15    0.00  380.00 1.0400 3000.00-3000.00  0.0000  0.0000    0   84
  85 E-61          2207  0 1.0000   0.69    50.50     0.00     0.00    0.00  380.00 0.0000   0.000   0.000  0.0000  0.0000    0   85
  86 E-62          2208  0 1.0000  48.02   134.02     0.00     0.00    0.00  380.00 0.0000   0.000   0.000  0.0000  0.0000    0   86
  87 E-63          2217  2 1.0000  13.73     0.00     0.00   296.15    0.00  380.00 1.0400 3000.00-3000.00  0.0000  0.0000    0   87
  88 E-64          2213  0 1.0000  -2.82    79.67     0.00     0.00    0.00  380.00 0.0000   0.000   0.000  0.0000  0.0000    0   88
  89 E-65          2207  0 1.0000   4.64    50.50     0.00     0.00    0.00  380.00 0.0000   0.000   0.000  0.0000  0.0000    0   89
  90 E-66          2217  2 1.0000  51.06     0.00     0.00   296.15    0.00  380.00 1.0400 3000.00-3000.00  0.0000  0.0000    0   90
  91 E-67          2217  2 1.0000  18.69     0.00     0.00   296.15    0.00  380.00 1.0400 3000.00-3000.00  0.0000  0.0000    0   91
  92 E-68          2213  0 1.0000   8.52    79.67     0.00     0.00    0.00  380.00 0.0000   0.000   0.000  0.0000  0.0000    0   92
  93 E-69          2208  0 1.0000  51.41   134.02     0.00     0.00    0.00  380.00 0.0000   0.000   0.000  0.0000  0.0000    0   93
  94 E-70          2207  0 1.0000   8.38    50.50     0.00     0.00    0.00  380.00 0.0000   0.000   0.000  0.0000  0.0000    0   94
  95 E-71          2213  0 1.0000  -6.46    79.67     0.00     0.00    0.00  380.00 0.0000   0.000   0.000  0.0000  0.0000    0   95
  96 E-72          2208  0 1.0000  48.41   134.02     0.00     0.00    0.00  380.00 0.0000   0.000   0.000  0.0000  0.0000    0   96
  97 E-73          2217  2 1.0000  12.65     0.00     0.00   296.15    0.00  380.00 1.0400 3000.00-3000.00  0.0000  0.0000    0   97
  98 E-74          2217  2 1.0000  14.26     0.00     0.00   296.15    0.00  380.00 1.0400 3000.00-3000.00  0.0000  0.0000    0   98
  99 E-75          2213  0 1.0000  -5.25    79.67     0.00     0.00    0.00  380.00 0.0000   0.000   0.000  0.0000  0.0000    0   99
 100 E-76          2208  0 1.0000  40.20   133.98     0.00     0.00    0.00  380.00 0.0000   0.000   0.000  0.0000  0.0000    0  100
 101 E_Vic         2217  2 1.0000  46.72     0.00     0.00   296.15    0.00  380.00 1.0400 3000.00-3000.00  0.0000  0.0000    0  101
 102 E-78          2213  0 1.0000   2.96    79.67     0.00     0.00    0.00  380.00 0.0000   0.000   0.000  0.0000  0.0000    0  102
 103 E-79          2216  0 1.0000  42.73   113.16     0.00     0.00    0.00  380.00 0.0000   0.000   0.000  0.0000  0.0000    0  103
 104 E-80          2216  0 1.0000   8.24   113.20  -100.00     0.00    0.00  380.00 0.0000   0.000   0.000  0.0000  0.0000    0  104
 105 E-81          2213  0 1.0000  -5.09    79.68  -350.00     0.00    0.00  380.00 0.0000   0.000   0.000  0.0000  0.0000    0  105
 106 E-82          2208  0 1.0000  45.04   134.02     0.00     0.00    0.00  380.00 0.0000   0.000   0.000  0.0000  0.0000    0  106
 107 E-83          2216  0 1.0000  26.98   113.20  -100.00     0.00    0.00  380.00 0.0000   0.000   0.000  0.0000  0.0000    0  107
 108 E-84          2216  0 1.0000  12.46   113.20  -100.00     0.00    0.00  380.00 0.0000   0.000   0.000  0.0000  0.0000    0  108
 109 E-85          2213  0 1.0000 -10.93    79.65   -50.00     0.00    0.00  380.00 0.0000   0.000   0.000  0.0000  0.0000    0  109
 110 E-86          2213  0 1.0000   5.39    79.67     0.00     0.00    0.00  380.00 0.0000   0.000   0.000  0.0000  0.0000    0  110
 111 E-87          2208  0 1.0000  44.22   134.02     0.00     0.00    0.00  380.00 0.0000   0.000   0.000  0.0000  0.0000    0  111
 112 E-88          2213  0 1.0000 -10.84    79.68  -150.00     0.00    0.00  380.00 0.0000   0.000   0.000  0.0000  0.0000    0  112
 113 E-89          2213  0 1.0000  -8.97    79.67     0.00     0.00    0.00  380.00 0.0000   0.000   0.000  0.0000  0.0000    0  113
 114 E-90          2217  2 1.0000  -6.42     0.00     0.00   296.15    0.00  380.00 1.0400 3000.00-3000.00  0.0000  0.0000    0  114
 115 E-91          2208  0 1.0000  45.74   134.02     0.00     0.00    0.00  380.00 0.0000   0.000   0.000  0.0000  0.0000    0  115
 116 E-92          2213  0 1.0000  -9.45    79.68  -150.00     0.00    0.00  380.00 0.0000   0.000   0.000  0.0000  0.0000    0  116
 117 E-93          2208  0 1.0000  32.37   134.02     0.00     0.00    0.00  380.00 0.0000   0.000   0.000  0.0000  0.0000    0  117
 118 E-94          2208  0 1.0000  44.53   134.02     0.00     0.00    0.00  380.00 0.0000   0.000   0.000  0.0000  0.0000    0  118
 119 E-95          2216  0 1.0000  24.57   113.20  -100.00     0.00    0.00  380.00 0.0000   0.000   0.000  0.0000  0.0000    0  119
 120 E-96          2216  0 1.0000   5.49   113.20  -100.00     0.00    0.00  380.00 0.0000   0.000   0.000  0.0000  0.0000    0  120
 121 E-97          2216  0 1.0000  25.86   113.20  -100.00     0.00    0.00  380.00 0.0000   0.000   0.000  0.0000  0.0000    0  121
 122 E-98          2208  0 1.0000  44.80   134.02     0.00     0.00    0.00  380.00 0.0000   0.000   0.000  0.0000  0.0000    0  122
 123 E-99          2213  0 1.0000  12.67    79.65  -300.00     0.00    0.00  380.00 0.0000   0.000   0.000  0.0000  0.0000    0  123
 124 E-100         2208  0 1.0000  28.52   134.00  -100.00     0.00    0.00  380.00 0.0000   0.000   0.000  0.0000  0.0000    0  124
 125 E-101         2213  0 1.0000 -10.11    79.68  -150.00     0.00    0.00  380.00 0.0000   0.000   0.000  0.0000  0.0000    0  125
 126 E-102         2217  2 1.0000  48.88     0.00     0.00   267.14    0.00  380.00 1.0400 3000.00-3000.00  0.0000  0.0000    0  126
 127 E-103         2217  2 1.0000  -7.96     0.00     0.00   296.15    0.00  380.00 1.0400 3000.00-3000.00  0.0000  0.0000    0  127
 128 E-104         2217  2 1.0000  40.41     0.00     0.00   296.15    0.00  380.00 1.0400 3000.00-3000.00  0.0000  0.0000    0  128
 129 E-105         2208  0 1.0000  44.35   134.02     0.00     0.00    0.00  380.00 0.0000   0.000   0.000  0.0000  0.0000    0  129
 130 E-106         2208  0 1.0000  41.21   134.02     0.00     0.00    0.00  380.00 0.0000   0.000   0.000  0.0000  0.0000    0  130
 131 E-107         2216  0 1.0000  31.55   113.16     0.00     0.00    0.00  380.00 0.0000   0.000   0.000  0.0000  0.0000    0  131
 132 E-108         2217  2 1.0000  48.48     0.00     0.00   403.81    0.00  380.00 1.0400 3000.00-3000.00  0.0000  0.0000    0  132
 133 E-109         2217  2 1.0000  -9.14     0.00     0.00   296.15    0.00  380.00 1.0400 3000.00-3000.00  0.0000  0.0000    0  133
 134 E-110         2208  0 1.0000  43.39   134.02     0.00     0.00    0.00  380.00 0.0000   0.000   0.000  0.0000  0.0000    0  134
 135 E-111         2213  0 1.0000  -8.99    79.67     0.00     0.00    0.00  380.00 0.0000   0.000   0.000  0.0000  0.0000    0  135
 136 E-112         2217  2 1.0000  37.47     0.00     0.00   855.77    0.00  380.00 1.0400 3000.00-3000.00  0.0000  0.0000    0  136
 137 E-113         2208  0 1.0000  30.09   134.00  -100.00     0.00    0.00  380.00 0.0000   0.000   0.000  0.0000  0.0000    0  137
 138 E-114         2217  2 1.0000  45.56     0.00     0.00  1595.84    0.00  380.00 1.0400 3000.00-3000.00  0.0000  0.0000    0  138
 139 E-115         2208  0 1.0000  42.37   134.02     0.00     0.00    0.00  380.00 0.0000   0.000   0.000  0.0000  0.0000    0  139
 140 E-116         2213  0 1.0000 -21.51    79.65  -100.00     0.00    0.00  380.00 0.0000   0.000   0.000  0.0000  0.0000    0  140
 141 E-117         2217  2 1.0000  44.26     0.00     0.00   844.13    0.00  380.00 1.0400 3000.00-3000.00  0.0000  0.0000    0  141
 142 E-118         2213  0 1.0000 -27.13    79.65  -100.00     0.00    0.00  380.00 0.0000   0.000   0.000  0.0000  0.0000    0  142
 143 E-119         2217  2 1.0000  37.46     0.00     0.00   124.25    0.00  380.00 1.0400 3000.00-3000.00  0.0000  0.0000    0  143
 144 E-120         2217  2 1.0000 -31.01     0.00     0.00   827.82    0.00  380.00 1.0400 3000.00-3000.00  0.0000  0.0000    0  144
 145 E-121         2214  0 1.0000 -36.82   546.96  -300.00     0.00    0.00  380.00 0.0000   0.000   0.000  0.0000  0.0000    0  145
 146 E-122         2214  0 1.0000 -35.78   546.96  -300.00     0.00    0.00  380.00 0.0000   0.000   0.000  0.0000  0.0000    0  146
 147 E-123         2214  0 1.0000 -32.82   546.96  -300.00     0.00    0.00  380.00 0.0000   0.000   0.000  0.0000  0.0000    0  147
 148 E-124         2215  0 1.0000 -36.89   100.40  -100.00     0.00    0.00  380.00 0.0000   0.000   0.000  0.0000  0.0000    0  148
 149 E-125         2214  0 1.0000 -35.92   546.96  -400.00     0.00    0.00  380.00 0.0000   0.000   0.000  0.0000  0.0000    0  149
 150 E-126         2210  0 1.0000  20.17   339.56  -400.00     0.00    0.00  380.00 0.0000   0.000   0.000  0.0000  0.0000    0  150
 151 E-127         2214  0 1.0000 -38.03   546.96  -300.00     0.00    0.00  380.00 0.0000   0.000   0.000  0.0000  0.0000    0  151
 152 E-128         2217  2 1.0000 -34.33     0.00     0.00   124.25    0.00  380.00 1.0400 3000.00-3000.00  0.0000  0.0000    0  152
 153 E-129         2217  2 1.0000  -2.48     0.00     0.00   296.15    0.00  380.00 1.0400 3000.00-3000.00  0.0000  0.0000    0  153
 154 E-130         2214  0 1.0000 -36.71   546.96  -300.00     0.00    0.00  380.00 0.0000   0.000   0.000  0.0000  0.0000    0  154
 155 E-131         2215  0 1.0000 -28.82   100.42     0.00     0.00    0.00  380.00 0.0000   0.000   0.000  0.0000  0.0000    0  155
 156 E-132         2214  0 1.0000 -49.63   546.96  -300.00     0.00    0.00  380.00 0.0000   0.000   0.000  0.0000  0.0000    0  156
 157 E-133         2212  0 1.0000 -40.91   163.17     0.00     0.00    0.00  380.00 0.0000   0.000   0.000  0.0000  0.0000    0  157
 158 E-134         2215  0 1.0000 -40.60   100.42     0.00     0.00    0.00  380.00 0.0000   0.000   0.000  0.0000  0.0000    0  158
 159 E-135         2217  2 1.0000   5.25     0.00     0.00   841.80    0.00  380.00 1.0400 3000.00-3000.00  0.0000  0.0000    0  159
 160 E-136         2217  2 1.0000 -48.96     0.00     0.00   243.84    0.00  380.00 1.0400 3000.00-3000.00  0.0000  0.0000    0  160
 161 E-137         2217  2 1.0000 -14.43     0.00     0.00   296.15    0.00  380.00 1.0400 3000.00-3000.00  0.0000  0.0000    0  161
 162 E-138         2217  2 1.0000   1.75     0.00     0.00   296.15    0.00  380.00 1.0400 3000.00-3000.00  0.0000  0.0000    0  162
 163 E-139         2217  2 1.0000 -27.44     0.00     0.00   296.15    0.00  380.00 1.0400 3000.00-3000.00  0.0000  0.0000    0  163
 164 E-140         2217  2 1.0000 -25.17     0.00     0.00  1519.73    0.00  380.00 1.0400 3000.00-3000.00  0.0000  0.0000    0  164
 165 E-141         2217  2 1.0000 -19.00     0.00     0.00   296.15    0.00  380.00 1.0400 3000.00-3000.00  0.0000  0.0000    0  165
 166 E-142         2217  2 1.0000 -16.13     0.00     0.00   296.15    0.00  380.00 1.0400 3000.00-3000.00  0.0000  0.0000    0  166
 167 E-143         2215  0 1.0000 -55.46   100.42     0.00     0.00    0.00  380.00 0.0000   0.000   0.000  0.0000  0.0000    0  167
 168 E-144         2215  0 1.0000 -36.63   100.42     0.00     0.00    0.00  380.00 0.0000   0.000   0.000  0.0000  0.0000    0  168
 169 E-145         2212  0 1.0000 -25.01   163.17     0.00     0.00    0.00  380.00 0.0000   0.000   0.000  0.0000  0.0000    0  169
 170 E-146         2210  0 1.0000 -12.76   339.59  -200.00     0.00    0.00  380.00 0.0000   0.000   0.000  0.0000  0.0000    0  170
 171 E-147         2215  0 1.0000 -59.82   100.42     0.00     0.00    0.00  380.00 0.0000   0.000   0.000  0.0000  0.0000    0  171
 172 E-148         2210  0 1.0000 -15.37   339.59  -200.00     0.00    0.00  380.00 0.0000   0.000   0.000  0.0000  0.0000    0  172
 173 E-149         2215  0 1.0000 -64.37   100.42     0.00     0.00    0.00  380.00 0.0000   0.000   0.000  0.0000  0.0000    0  173
 174 E-150         2217  2 1.0000 -52.02     0.00     0.00   296.15    0.00  380.00 1.0400 3000.00-3000.00  0.0000  0.0000    0  174
 175 E-151         2210  0 1.0000 -22.52   339.59     0.00     0.00    0.00  380.00 0.0000   0.000   0.000  0.0000  0.0000    0  175
 176 E-152         2217  2 1.0000 -19.48     0.00     0.00   795.98    0.00  380.00 1.0400 3000.00-3000.00  0.0000  0.0000    0  176
 177 E-153         2210  0 1.0000 -28.45   339.59  -200.00     0.00    0.00  380.00 0.0000   0.000   0.000  0.0000  0.0000    0  177
 178 E-154         2212  0 1.0000 -43.70   163.15  -200.00     0.00    0.00  380.00 0.0000   0.000   0.000  0.0000  0.0000    0  178
 179 E-155         2215  0 1.0000 -68.31   100.44  -250.00     0.00    0.00  380.00 0.0000   0.000   0.000  0.0000  0.0000    0  179
 180 E-156         2215  0 1.0000 -45.64   100.40  -100.00     0.00    0.00  380.00 0.0000   0.000   0.000  0.0000  0.0000    0  180
 181 E-157         2215  0 1.0000 -71.45   100.42     0.00     0.00    0.00  380.00 0.0000   0.000   0.000  0.0000  0.0000    0  181
 182 E-158         2215  0 1.0000 -71.98   100.42     0.00     0.00    0.00  380.00 0.0000   0.000   0.000  0.0000  0.0000    0  182
 183 E-159         2210  0 1.0000 -32.44   339.59     0.00     0.00    0.00  380.00 0.0000   0.000   0.000  0.0000  0.0000    0  183
 184 E-160         2217  2 1.0000 -74.91     0.00     0.00   326.93    0.00  380.00 1.0400 3000.00-3000.00  0.0000  0.0000    0  184
 185 E-161         2215  0 1.0000 -49.84   100.40  -100.00     0.00    0.00  380.00 0.0000   0.000   0.000  0.0000  0.0000    0  185
 186 E-162         2210  0 1.0000 -35.37   339.59  -200.00     0.00    0.00  380.00 0.0000   0.000   0.000  0.0000  0.0000    0  186
 187 E-163         2215  0 1.0000 -79.33   100.40  -100.00     0.00    0.00  380.00 0.0000   0.000   0.000  0.0000  0.0000    0  187
 188 E-164         2212  0 1.0000 -56.20   163.15  -200.00     0.00    0.00  380.00 0.0000   0.000   0.000  0.0000  0.0000    0  188
 189 E-165         2210  0 1.0000 -37.11   339.59  -200.00     0.00    0.00  380.00 0.0000   0.000   0.000  0.0000  0.0000    0  189
 190 E-166         2212  0 1.0000 -57.84   163.15  -100.00     0.00    0.00  380.00 0.0000   0.000   0.000  0.0000  0.0000    0  190
 191 E-167         2211  0 1.0000 -81.80   366.74  -200.00     0.00    0.00  380.00 0.0000   0.000   0.000  0.0000  0.0000    0  191
 192 E-168         2209  0 1.0000 -52.92   209.10     0.00     0.00    0.00  380.00 0.0000   0.000   0.000  0.0000  0.0000    0  192
 193 E-169         2211  0 1.0000 -76.34   366.73  -600.00     0.00    0.00  380.00 0.0000   0.000   0.000  0.0000  0.0000    0  193
 194 E-170         2211  0 1.0000 -85.04   366.73  -400.00     0.00    0.00  380.00 0.0000   0.000   0.000  0.0000  0.0000    0  194
 195 E-171         2211  0 1.0000 -85.63   366.74  -200.00     0.00    0.00  380.00 0.0000   0.000   0.000  0.0000  0.0000    0  195
 196 E-172         2209  0 1.0000 -52.96   209.10     0.00     0.00    0.00  380.00 0.0000   0.000   0.000  0.0000  0.0000    0  196
 197 E-173         2210  0 1.0000 -51.27   339.59     0.00     0.00    0.00  380.00 0.0000   0.000   0.000  0.0000  0.0000    0  197
 198 E-174         2209  0 1.0000 -50.05   209.10     0.00     0.00    0.00  380.00 0.0000   0.000   0.000  0.0000  0.0000    0  198
 199 E-175         2217  2 1.0000 -66.30     0.00     0.00   296.15    0.00  380.00 1.0400 3000.00-3000.00  0.0000  0.0000    0  199
 200 E-176         2209  0 1.0000 -48.53   209.10     0.00     0.00    0.00  380.00 0.0000   0.000   0.000  0.0000  0.0000    0  200
 201 E-177         2217  2 1.0000 -44.81     0.00     0.00   666.30    0.00  380.00 1.0400 3000.00-3000.00  0.0000  0.0000    0  201
 202 E-178         2211  0 1.0000 -80.94   366.75     0.00     0.00    0.00  380.00 0.0000   0.000   0.000  0.0000  0.0000    0  202
 203 E-179         2211  0 1.0000 -70.93   366.75     0.00     0.00    0.00  380.00 0.0000   0.000   0.000  0.0000  0.0000    0  203
 204 E-180         2211  0 1.0000-113.35   366.74  -300.00     0.00    0.00  380.00 0.0000   0.000   0.000  0.0000  0.0000    0  204
 205 E-181         2211  0 1.0000 -93.22   366.73 -1000.00     0.00    0.00  380.00 0.0000   0.000   0.000  0.0000  0.0000    0  205
 206 E-182         2211  0 1.0000-139.63   366.74  -300.00     0.00    0.00  380.00 0.0000   0.000   0.000  0.0000  0.0000    0  206
 207 E-183         2217  2 1.0000 -59.60     0.00     0.00    88.53    0.00  380.00 1.0400 3000.00-3000.00  0.0000  0.0000    0  207
 208 E-184         2217  2 1.0000 -82.53     0.00     0.00   296.15    0.00  380.00 1.0400 3000.00-3000.00  0.0000  0.0000    0  208
 209 E-185         2211  0 1.0000-182.56   366.73  -400.00     0.00    0.00  380.00 0.0000   0.000   0.000  0.0000  0.0000    0  209
 210 E-186         2211  0 1.0000 -86.84   366.73     0.00     0.00    0.00  380.00 0.0000   0.000   0.000  0.0000  0.0000    0  210
 211 E-187         2211  0 1.0000-161.25   366.73  -500.00     0.00    0.00  380.00 0.0000   0.000   0.000  0.0000  0.0000    0  211
 212 E-188         2211  0 1.0000 -78.04   366.75     0.00     0.00    0.00  380.00 0.0000   0.000   0.000  0.0000  0.0000    0  212
 213 E-189         2211  0 1.0000 -90.51   366.75     0.00     0.00    0.00  380.00 0.0000   0.000   0.000  0.0000  0.0000    0  213
 214 E-190/19      2211  0 1.0000 -83.55   366.75     0.00     0.00    0.00  380.00 0.0000   0.000   0.000  0.0000  0.0000    0  214
 215 E-192         2217  2 1.0000 -73.79     0.00     0.00   584.75    0.00  380.00 1.0400 3000.00-3000.00  0.0000  0.0000    0  215
 216 E-193         2217  2 1.0000 -68.65     0.00     0.00   441.09    0.00  380.00 1.0400 3000.00-3000.00  0.0000  0.0000    0  216
 217 F-1           3100  2 1.0000  76.61     0.00     0.00   278.23    0.00  380.00 1.0400 3000.00-3000.00  0.0000  0.0000    0  217
 218 F-2           3100  2 1.0000  73.76     0.00     0.00  3245.93    0.00  380.00 1.0400 3000.00-3000.00  0.0000  0.0000    0  218
 219 F-3           3 94  0 1.0000  64.17   497.44     0.00     0.00    0.00  380.00 0.0000   0.000   0.000  0.0000  0.0000    0  219
 220 F-4           3 94  0 1.0000  42.52   497.44  -100.00     0.00    0.00  380.00 0.0000   0.000   0.000  0.0000  0.0000    0  220
 221 F-5           3 94  0 1.0000  51.70   497.42  -200.00     0.00    0.00  380.00 0.0000   0.000   0.000  0.0000  0.0000    0  221
 222 F-6Aveli      3 94  0 1.0000  63.06   497.44     0.00     0.00    0.00  380.00 0.0000   0.000   0.000  0.0000  0.0000    0  222
 223 F-7           3 94  0 1.0000  58.15   497.44     0.00     0.00    0.00  380.00 0.0000   0.000   0.000  0.0000  0.0000    0  223