1   'GENROU'   1   5.6   0.03   1.5  0.05   5.0   0.0   1.1   1.08   0.23   0.23   0.2   0.14   0.00   0.0   /
3   'GENCLS'   1  5000000.00          0.000/ CONSTANT INTERNAL VOLTAGE GENERATOR MODEL