{
  "general": {
    "version": "36.1"
  },
  "network": {
    "caseid": {
      "fields": [
        "ic",
        "sbase",
        "rev",
        "xfrrat",
        "nxfrat",
        "basfrq",
        "title1",
        "title2"
      ],
      "data": [
        0,
        100.0,
        36,
        0,
        1,
        60.0,
        "\u0027PSS(R)E SAMPLE CASE - ALL RECORD GROUPS WITH SEQ DATA\u0027",
        "\u0027NO NODE BREAKERS, NO ZERO IMPEDANCE LINES\u0027"
      ]
    },
    "bus": {
      "fields": [
        "ibus",
        "name",
        "baskv",
        "ide",
        "area",
        "zone",
        "owner",
        "vm",
        "va",
        "nvhi",
        "nvlo",
        "evhi",
        "evlo"
      ],
      "data": [
        [
          101,
          "NUC-A",
          21.6,
          2,
          1,
          1,
          1,
          1.01,
          -16.006,
          1.1,
          0.9,
          1.1,
          0.9
        ],
        [
          102,
          "NUC-B",
          21.6,
          2,
          1,
          1,
          1,
          1.01,
          -16.3595,
          1.1,
          0.9,
          1.1,
          0.9
        ],
        [
          151,
          "NUCPLNT",
          500.0,
          1,
          1,
          1,
          1,
          0.99937,
          -19.1528,
          1.1,
          0.9,
          1.1,
          0.9
        ],
        [
          152,
          "MID500",
          500.0,
          1,
          1,
          2,
          1,
          1.04402,
          -26.9516,
          1.1,
          0.9,
          1.1,
          0.9
        ],
        [
          153,
          "MID230",
          230.0,
          1,
          1,
          3,
          1,
          1.05775,
          -28.4654,
          1.1,
          0.9,
          1.1,
          0.9
        ],
        [
          154,
          "DOWNTN",
          230.0,
          1,
          1,
          3,
          1,
          0.9932,
          -33.0729,
          1.1,
          0.9,
          1.1,
          0.9
        ],
        [
          155,
          "FACTS TE",
          230.0,
          1,
          1,
          4,
          1,
          1.01858,
          -24.2458,
          1.1,
          0.9,
          1.1,
          0.9
        ],
        [
          201,
          "HYDRO",
          500.0,
          1,
          2,
          7,
          2,
          0.99937,
          -19.1528,
          1.1,
          0.9,
          1.1,
          0.9
        ],
        [
          202,
          "EAST500",
          500.0,
          1,
          2,
          2,
          2,
          1.02287,
          -28.2616,
          1.1,
          0.9,
          1.1,
          0.9
        ],
        [
          203,
          "EAST230",
          230.0,
          1,
          2,
          8,
          2,
          1.0,
          -29.4008,
          1.1,
          0.9,
          1.1,
          0.9
        ],
        [
          204,
          "SUB500",
          500.0,
          1,
          2,
          8,
          2,
          1.03148,
          -31.2793,
          1.1,
          0.9,
          1.1,
          0.9
        ],
        [
          205,
          "SUB230",
          230.0,
          1,
          2,
          8,
          2,
          1.0,
          -33.5567,
          1.1,
          0.9,
          1.1,
          0.9
        ],
        [
          206,
          "URBGEN",
          18.0,
          2,
          2,
          8,
          2,
          1.0,
          -31.1018,
          1.1,
          0.9,
          1.1,
          0.9
        ],
        [
          207,
          "DUPONT",
          500.0,
          1,
          2,
          7,
          2,
          1.0193,
          -25.3665,
          1.1,
          0.9,
          1.1,
          0.9
        ],
        [
          208,
          "URBANEAST208",
          230.0,
          4,
          2,
          8,
          2,
          1.0,
          -31.5246,
          1.1,
          0.9,
          1.1,
          0.9
        ],
        [
          209,
          "URBANEAST209",
          230.0,
          4,
          2,
          8,
          2,
          1.0,
          -31.5246,
          1.1,
          0.9,
          1.1,
          0.9
        ],
        [
          211,
          "HYDRO_G",
          20.0,
          2,
          2,
          7,
          2,
          1.0,
          -14.5305,
          1.1,
          0.9,
          1.1,
          0.9
        ],
        [
          212,
          "INVERT1",
          230.0,
          1,
          2,
          7,
          2,
          1.02695,
          -31.9331,
          1.1,
          0.9,
          1.1,
          0.9
        ],
        [
          213,
          "INVERT2",
          230.0,
          1,
          2,
          7,
          2,
          1.10677,
          -35.1988,
          1.1,
          0.9,
          1.1,
          0.9
        ],
        [
          214,
          "LOADER",
          230.0,
          1,
          2,
          7,
          2,
          1.07726,
          -36.6286,
          1.1,
          0.9,
          1.1,
          0.9
        ],
        [
          215,
          "URBANEAST215",
          18.0,
          1,
          2,
          8,
          2,
          0.91817,
          -33.4909,
          1.1,
          0.9,
          1.1,
          0.9
        ],
        [
          216,
          "URBANEAST216",
          230.0,
          1,
          2,
          8,
          2,
          0.99637,
          -33.5336,
          1.1,
          0.9,
          1.1,
          0.9
        ],
        [
          217,
          "URBANEAST217",
          230.0,
          1,
          2,
          8,
          2,
          0.99733,
          -33.5397,
          1.1,
          0.9,
          1.1,
          0.9
        ],
        [
          218,
          "URBANEAST218",
          230.0,
          1,
          2,
          8,
          2,
          0.99769,
          -33.5419,
          1.1,
          0.9,
          1.1,
          0.9
        ],
        [
          301,
          "NORTH",
          765.0,
          3,
          3,
          5,
          3,
          1.0,
          0.0,
          1.1,
          0.9,
          1.1,
          0.9
        ],
        [
          401,
          "COGEN-1",
          500.0,
          3,
          4,
          9,
          4,
          1.0,
          0.0,
          1.1,
          0.9,
          1.1,
          0.9
        ],
        [
          402,
          "COGEN-2",
          500.0,
          3,
          6,
          9,
          4,
          1.0,
          0.0,
          1.1,
          0.9,
          1.1,
          0.9
        ],
        [
          3001,
          "MINE",
          230.0,
          1,
          5,
          6,
          5,
          0.99281,
          -12.1161,
          1.1,
          0.9,
          1.1,
          0.9
        ],
        [
          3002,
          "E. MINE",
          500.0,
          1,
          5,
          6,
          5,
          0.99324,
          -10.3568,
          1.1,
          0.9,
          1.1,
          0.9
        ],
        [
          3003,
          "S. MINE",
          230.0,
          1,
          5,
          6,
          5,
          0.99225,
          -11.6741,
          1.1,
          0.9,
          1.1,
          0.9
        ],
        [
          3004,
          "WEST",
          500.0,
          1,
          5,
          6,
          5,
          1.01277,
          -22.3707,
          1.1,
          0.9,
          1.1,
          0.9
        ],
        [
          3005,
          "WEST",
          230.0,
          1,
          5,
          2,
          5,
          0.9996,
          -22.9176,
          1.1,
          0.9,
          1.1,
          0.9
        ],
        [
          3006,
          "UPTOWN",
          230.0,
          1,
          5,
          4,
          5,
          1.05775,
          -28.4654,
          1.1,
          0.9,
          1.1,
          0.9
        ],
        [
          3007,
          "RURAL",
          230.0,
          1,
          5,
          4,
          5,
          0.98217,
          -26.0764,
          1.1,
          0.9,
          1.1,
          0.9
        ],
        [
          3008,
          "CATDOG",
          230.0,
          1,
          5,
          4,
          5,
          0.99,
          -26.4402,
          1.1,
          0.9,
          1.1,
          0.9
        ],
        [
          3009,
          "URBNWEST3009",
          230.0,
          1,
          5,
          4,
          5,
          0.99048,
          -26.4598,
          1.1,
          0.9,
          1.1,
          0.9
        ],
        [
          3010,
          "INDMOTOR1",
          21.6,
          1,
          5,
          4,
          5,
          0.9639,
          0.3038,
          1.1,
          0.9,
          1.1,
          0.9
        ],
        [
          3011,
          "MINE_G",
          19.4,
          3,
          5,
          6,
          5,
          1.0,
          0.0,
          1.1,
          0.9,
          1.1,
          0.9
        ],
        [
          3012,
          "URBNWEST3012",
          230.0,
          4,
          5,
          4,
          5,
          0.99048,
          0.0,
          1.1,
          0.9,
          1.1,
          0.9
        ],
        [
          3018,
          "CATDOG_G",
          13.8,
          2,
          5,
          4,
          5,
          0.99,
          -22.6703,
          1.1,
          0.9,
          1.1,
          0.9
        ],
        [
          3021,
          "WDUM",
          18.0,
          1,
          3,
          5,
          3,
          1.0,
          -23.4606,
          1.1,
          0.9,
          1.1,
          0.9
        ],
        [
          3022,
          "EDUM",
          18.0,
          1,
          3,
          5,
          3,
          1.0,
          -22.7717,
          1.1,
          0.9,
          1.1,
          0.9
        ],
        [
          9154,
          "INDGEN1",
          4.16,
          1,
          1,
          3,
          1,
          0.98615,
          -32.3912,
          1.1,
          0.9,
          1.1,
          0.9
        ],
        [
          9204,
          "INDMOTOR2",
          0.575,
          1,
          2,
          8,
          2,
          0.98205,
          -34.9612,
          1.1,
          0.9,
          1.1,
          0.9
        ],
        [
          70202,
          "EAST-MOV",
          500.0,
          1,
          2,
          2,
          2,
          1.02027,
          -28.421,
          1.1,
          0.9,
          1.1,
          0.9
        ],
        [
          93002,
          "INDGEN2",
          0.69,
          1,
          5,
          6,
          5,
          0.95517,
          -4.2498,
          1.1,
          0.9,
          1.1,
          0.9
        ],
        [
          703003,
          "S. MINE-MOV",
          230.0,
          1,
          5,
          6,
          5,
          0.99938,
          -15.6289,
          1.1,
          0.9,
          1.1,
          0.9
        ],
        [
          703005,
          "WEST-2-MOV",
          230.0,
          1,
          5,
          2,
          5,
          1.00644,
          -24.3755,
          1.1,
          0.9,
          1.1,
          0.9
        ]
      ]
    },
    "load": {
      "fields": [
        "ibus",
        "loadid",
        "stat",
        "area",
        "zone",
        "pl",
        "ql",
        "ip",
        "iq",
        "yp",
        "yq",
        "owner",
        "scale",
        "intrpt",
        "dgenp",
        "dgenq",
        "dgenf",
        "loadtype",
        "n a m e"
      ],
      "data": [
        [
          152,
          "1",
          1,
          1,
          1,
          1200.0,
          360.0,
          868.34,
          360.502,
          837.794,
          -351.338,
          1,
          1,
          0,
          0.0,
          0.0,
          0,
          "LD_INDSTRY_1",
          "LOAD_100001"
        ],
        [
          153,
          "1",
          1,
          1,
          1,
          300.0,
          150.0,
          0.0,
          0.0,
          0.0,
          0.0,
          1,
          1,
          0,
          100.0,
          50.0,
          1,
          "LD_INDSTRY_2",
          "LOAD_100002"
        ],
        [
          154,
          "1",
          1,
          1,
          1,
          400.0,
          200.0,
          0.0,
          0.0,
          0.0,
          0.0,
          1,
          1,
          0,
          30.0,
          15.0,
          1,
          "LD_INDSTRY_3",
          "LOAD_100003"
        ],
        [
          154,
          "2",
          1,
          1,
          1,
          250.0,
          200.0,
          0.0,
          0.0,
          0.0,
          0.0,
          1,
          1,
          0,
          20.0,
          8.0,
          1,
          "LD_INDSTRY_4",
          "LOAD_100004"
        ],
        [
          154,
          "3",
          1,
          1,
          1,
          250.0,
          100.0,
          0.0,
          0.0,
          0.0,
          0.0,
          1,
          1,
          0,
          7.5,
          2.75,
          1,
          "LD_INDSTRY_5",
          "LOAD_100005"
        ],
        [
          154,
          "MO",
          1,
          1,
          1,
          100.0,
          80.0,
          0.0,
          0.0,
          0.0,
          0.0,
          1,
          1,
          0,
          0.0,
          0.0,
          0,
          "LD_INDSTRY_6",
          "LOAD_100006"
        ],
        [
          201,
          "SC",
          1,
          2,
          7,
          0.0,
          0.0,
          0.0,
          0.0,
          0.0,
          0.0,
          2,
          1,
          0,
          0.0,
          0.0,
          0,
          "LD_INDSTRY_7",
          "LOAD_100007"
        ],
        [
          203,
          "1",
          1,
          2,
          2,
          500.0,
          250.0,
          0.0,
          0.0,
          0.0,
          0.0,
          2,
          1,
          0,
          0.0,
          0.0,
          0,
          "LD_INDSTRY_8",
          "LOAD_100008"
        ],
        [
          205,
          "1",
          1,
          2,
          2,
          1800.0,
          600.0,
          0.0,
          0.0,
          0.0,
          0.0,
          2,
          1,
          0,
          75.86,
          46.786,
          0,
          "LD_INDSTRY_9",
          "LOAD_100009"
        ],
        [
          205,
          "B",
          1,
          2,
          2,
          90.0,
          5.0,
          110.0,
          25.0,
          20.0,
          10.0,
          2,
          1,
          0,
          65.123,
          20.456,
          1,
          "",
          "LOAD_100010"
        ],
        [
          205,
          "C",
          1,
          2,
          2,
          60.0,
          15.0,
          45.0,
          5.0,
          35.0,
          30.0,
          2,
          1,
          0,
          37.0,
          13.0,
          1,
          "LD_DSTRBN_1",
          "LOAD_100011"
        ],
        [
          214,
          "1",
          1,
          2,
          2,
          500.0,
          75.0,
          0.0,
          0.0,
          0.0,
          0.0,
          2,
          1,
          0,
          0.0,
          0.0,
          0,
          "LD_DSTRBN_2",
          "LOAD_100012"
        ],
        [
          215,
          "U1",
          1,
          2,
          4,
          0.0,
          140.0,
          0.0,
          0.0,
          0.0,
          0.0,
          2,
          1,
          0,
          0.0,
          0.0,
          0,
          "LD_DSTRBN_3",
          "LOAD_100013"
        ],
        [
          216,
          "U1",
          1,
          2,
          4,
          0.0,
          12.0,
          0.0,
          0.0,
          0.0,
          0.0,
          2,
          1,
          0,
          0.0,
          0.0,
          0,
          "LD_DSTRBN_4",
          "LOAD_100014"
        ],
        [
          217,
          "U1",
          1,
          2,
          4,
          0.0,
          10.0,
          0.0,
          0.0,
          0.0,
          0.0,
          2,
          1,
          0,
          0.0,
          0.0,
          0,
          "LD_DSTRBN_5",
          "LOAD_100015"
        ],
        [
          218,
          "U1",
          1,
          2,
          4,
          0.0,
          9.0,
          0.0,
          0.0,
          0.0,
          0.0,
          2,
          1,
          0,
          0.0,
          0.0,
          0,
          "LD_DSTRBN_6",
          "LOAD_100016"
        ],
        [
          3005,
          "1",
          1,
          5,
          5,
          100.0,
          50.0,
          0.0,
          0.0,
          0.0,
          0.0,
          5,
          1,
          0,
          0.0,
          0.0,
          0,
          "LD_DSTRBN_7",
          "LOAD_100017"
        ],
        [
          3007,
          "1",
          1,
          5,
          5,
          200.0,
          75.0,
          0.0,
          0.0,
          0.0,
          0.0,
          5,
          1,
          0,
          0.0,
          0.0,
          0,
          "LD_DSTRBN_8",
          "LOAD_100018"
        ],
        [
          3008,
          "1",
          1,
          5,
          5,
          200.0,
          75.0,
          0.0,
          0.0,
          0.0,
          0.0,
          5,
          1,
          0,
          0.0,
          0.0,
          0,
          "LD_DSTRBN_9",
          "LOAD_100019"
        ],
        [
          3009,
          "1",
          1,
          5,
          4,
          1.1,
          0.9,
          0.0,
          0.0,
          0.0,
          0.0,
          5,
          1,
          0,
          0.0,
          0.0,
          0,
          "",
          "LOAD_100020"
        ],
        [
          3010,
          "1",
          1,
          5,
          4,
          12.0,
          5.0,
          0.0,
          0.0,
          0.0,
          0.0,
          5,
          1,
          0,
          0.0,
          0.0,
          0,
          "",
          ""
        ]
      ]
    },
    "fixshunt": {
      "fields": [
        "ibus",
        "shntid",
        "stat",
        "gl",
        "bl",
        "n a m e"
      ],
      "data": [
        [
          151,
          "F1",
          1,
          5.0,
          -400.0,
          "FXSH_200001"
        ],
        [
          151,
          "F2",
          1,
          3.0,
          -400.0,
          "FXSH_200002"
        ],
        [
          151,
          "F3",
          1,
          3.12,
          200.0,
          "FXSH_200003"
        ],
        [
          152,
          "1",
          1,
          1.63,
          50.0,
          "FXSH_200004"
        ],
        [
          154,
          "1",
          1,
          2.45,
          200.0,
          "FXSH_200005"
        ],
        [
          201,
          "1",
          1,
          3.67,
          -500.0,
          "FXSH_200006"
        ],
        [
          203,
          "1",
          1,
          -5.0,
          30.0,
          "FXSH_200007"
        ],
        [
          203,
          "2",
          1,
          5.0,
          20.0,
          "FXSH_200008"
        ],
        [
          205,
          "1",
          1,
          2.78,
          300.0,
          "FXSH_200009"
        ],
        [
          212,
          "1",
          1,
          5.13,
          400.0,
          "FXSH_200010"
        ],
        [
          213,
          "1",
          1,
          5.14,
          400.0,
          "FXSH_200011"
        ],
        [
          3021,
          "1",
          1,
          0.0,
          1320.0,
          "FXSH_200012"
        ],
        [
          3022,
          "1",
          1,
          0.0,
          1080.0,
          ""
        ]
      ]
    },
    "voltagedroop": {
      "fields": [
        "name",
        "status",
        "regbus",
        "qdb",
        "qmin",
        "qmax",
        "vdblow",
        "vdbhigh",
        "vlow",
        "vhigh"
      ],
      "data": [
        [
          "VLTDRP_A",
          1,
          0,
          10.12,
          -50.0,
          100.0,
          0.97,
          1.03,
          0.95,
          1.05
        ],
        [
          "VLTDRP_B",
          1,
          201,
          35.14,
          -25.0,
          255.0,
          0.985,
          1.024,
          0.963,
          1.042
        ],
        [
          "VLTDRP_C",
          1,
          151,
          15.13,
          -70.0,
          155.0,
          0.98,
          1.02,
          0.96,
          1.04
        ],
        [
          "VLTDRP_D",
          1,
          0,
          57.15,
          -50.0,
          100.0,
          0.97,
          1.03,
          0.95,
          1.05
        ]
      ]
    },
    "generator": {
      "fields": [
        "ibus",
        "machid",
        "pg",
        "qg",
        "qt",
        "qb",
        "vs",
        "ireg",
        "nreg",
        "mbase",
        "zr",
        "zx",
        "rt",
        "xt",
        "gtap",
        "stat",
        "rmpct",
        "pt",
        "pb",
        "baslod",
        "o1",
        "f1",
        "o2",
        "f2",
        "o3",
        "f3",
        "o4",
        "f4",
        "wmod",
        "wpf          droopname                                      n a m e"
      ],
      "data": [
        [
          101,
          "1",
          750.0,
          163.336,
          243.75,
          -37.5,
          1.01,
          101,
          0,
          900.0,
          0.01,
          0.3,
          0.0,
          0.0,
          1.0,
          1,
          100.0,
          800.0,
          50.0,
          1,
          1,
          0.1289,
          2,
          0.2524,
          3,
          0.1031,
          4,
          0.5156,
          0,
          0.0,
          "",
          "CONVENIONAL_1"
        ],
        [
          102,
          "1",
          650.0,
          150.015,
          406.25,
          -62.5,
          1.01,
          102,
          0,
          950.0,
          0.0105,
          0.32,
          0.0,
          0.0,
          1.0,
          1,
          100.0,
          700.0,
          33.0,
          2,
          1,
          0.3647,
          2,
          0.1838,
          3,
          0.0751,
          4,
          0.3764,
          0,
          0.0,
          "",
          "CONVENIONAL_2"
        ],
        [
          206,
          "1",
          800.0,
          283.913,
          600.0,
          0.0,
          1.0,
          206,
          0,
          1000.0,
          0.0106,
          0.251,
          0.0,
          0.0,
          1.0,
          1,
          100.0,
          850.0,
          50.0,
          3,
          1,
          0.1034,
          2,
          0.4006,
          3,
          0.0825,
          4,
          0.4135,
          null,
          null
        ],
        [
          211,
          "1",
          600.0,
          17.304,
          583.333,
          -77.778,
          1.0,
          211,
          0,
          725.0,
          0.0108,
          0.262,
          0.0,
          0.0,
          1.0,
          1,
          100.0,
          616.0,
          30.0,
          0,
          1,
          0.1423,
          2,
          0.221,
          3,
          0.1842,
          4,
          0.4525,
          1,
          1.0,
          "",
          "RENEWABLE_Q_FROM_QT_QB_1"
        ],
        [
          301,
          "1",
          996.884,
          327.66,
          327.66,
          327.66,
          1.0,
          301,
          0,
          1067.0,
          0.0109,
          0.23,
          0.014,
          0.126,
          1.025,
          1,
          98.0,
          1010.0,
          320.0,
          0,
          1,
          0.1118,
          2,
          0.2184,
          3,
          0.0893,
          4,
          0.5805,
          3,
          0.95,
          "",
          "RENEWABLE_Q_FROM_MQ_WPF_1"
        ],
        [
          301,
          "2",
          996.884,
          285.481,
          710.0,
          -600.0,
          1.0,
          301,
          0,
          1070.0,
          0.011,
          0.24,
          0.011,
          0.127,
          1.026,
          1,
          98.0,
          1011.0,
          321.0,
          0,
          1,
          0.1173,
          2,
          0.32,
          3,
          0.0936,
          4,
          0.4691,
          null,
          null
        ],
        [
          301,
          "3",
          996.884,
          285.481,
          720.0,
          -600.0,
          1.0,
          301,
          0,
          1075.0,
          0.008,
          0.25,
          0.012,
          0.128,
          1.027,
          1,
          98.0,
          1012.0,
          322.0,
          0,
          1,
          0.126,
          2,
          0.2268,
          3,
          0.1827,
          4,
          0.4644,
          null,
          null
        ],
        [
          401,
          "1",
          321.0,
          142.325,
          600.0,
          -100.0,
          1.0,
          401,
          0,
          600.0,
          0.0123,
          0.2223,
          0.0,
          0.0,
          1.0,
          1,
          90.0,
          350.0,
          25.0,
          0,
          1,
          0.1625,
          2,
          0.2423,
          3,
          0.099,
          4,
          0.4962,
          4,
          1.0,
          "",
          "INFEED_QG_CONSTANT_1"
        ],
        [
          402,
          "1",
          321.0,
          142.325,
          610.0,
          -110.0,
          1.0,
          402,
          0,
          610.0,
          0.0045,
          0.2432,
          0.0,
          0.0,
          1.0,
          1,
          91.0,
          351.0,
          26.0,
          0,
          1,
          0.1588,
          2,
          0.2117,
          3,
          0.1959,
          4,
          0.4335,
          4,
          1.0,
          "",
          "INFEED_QG_CONSTANT_2"
        ],
        [
          3011,
          "1",
          1142.016,
          132.445,
          600.0,
          -100.0,
          1.0,
          3011,
          0,
          1050.0,
          0.0076,
          0.3543,
          0.0,
          0.0,
          1.0,
          1,
          92.0,
          1400.0,
          100.0,
          0,
          1,
          0.1452,
          2,
          0.1926,
          3,
          0.2677,
          4,
          0.3945,
          0,
          0.0,
          "VLTDRP_D",
          "CONVENIONAL_3"
        ],
        [
          3018,
          "1",
          400.0,
          0.0,
          80.0,
          0.0,
          0.99,
          3018,
          0,
          530.0,
          0.087,
          0.3563,
          0.0,
          0.0,
          1.0,
          1,
          92.5,
          500.0,
          50.0,
          0,
          1,
          0.1043,
          2,
          0.2037,
          3,
          0.2749,
          4,
          0.4171,
          null,
          null
        ],
        [
          3018,
          "2",
          100.0,
          -0.785,
          75.0,
          -75.0,
          0.99,
          3018,
          0,
          120.0,
          0.024,
          0.3553,
          0.0,
          0.0,
          1.0,
          1,
          92.5,
          110.0,
          20.0,
          0,
          1,
          0.3003,
          2,
          0.1358,
          3,
          0.2857,
          4,
          0.2782,
          null,
          null
        ]
      ]
    },
    "swdratset": {
      "fields": [
        "name",
        "description",
        "rate1",
        "rate2",
        "rate3",
        "rate4",
        "rate5",
        "rate6",
        "rate7",
        "rate8",
        "rate9",
        "rate10",
        "rate11",
        "rate12"
      ],
      "data": [
        [
          "SWD_AIR_BLAST_AXIAL",
          "BREAKERS IN REGION H AIR_BLAST_AXIAL",
          6801.01,
          6802.02,
          6803.03,
          6804.04,
          6805.05,
          6806.06,
          6807.07,
          6808.08,
          6809.09,
          6810.1,
          6811.11,
          6812.12
        ],
        [
          "SWD_AIR_BLAST_CROSS",
          "BREAKERS IN REGION I AIR_BLAST_CROSS",
          3701.01,
          3702.02,
          3703.03,
          3704.04,
          3705.05,
          3706.06,
          3707.07,
          3708.08,
          3709.09,
          3710.1,
          3711.11,
          3712.12
        ],
        [
          "SWD_AIR_BLAST_RADIAL",
          "BREAKERS IN REGION J AIR_BLAST_RADIAL",
          701.01,
          702.02,
          703.03,
          704.04,
          705.05,
          706.06,
          707.07,
          708.08,
          709.09,
          710.1,
          711.11,
          712.12
        ],
        [
          "SWD_BLUE_SF6_FREE",
          "BREAKERS IN REGION K BLUE_SF6_FREE",
          401.01,
          402.02,
          403.03,
          404.04,
          405.05,
          406.06,
          407.07,
          408.08,
          409.09,
          410.1,
          411.11,
          412.12
        ],
        [
          "SWD_OIL_BULK_IMPULSE",
          "BREAKERS IN REGION G OIL_BULK_IMPULSE",
          1701.01,
          1702.02,
          1703.03,
          1704.04,
          1705.05,
          1706.06,
          1707.07,
          1708.08,
          1709.09,
          1710.1,
          1711.11,
          1712.12
        ],
        [
          "SWD_OIL_BULK_PLAIN",